27
Properties=species:S:1:pos:R:3 smiles=CC1CC2CCC1CC=OC2 name=camphor config_type=start_0 pbc="F F F"
C       -1.61812193      -1.18300790       0.81026616
C       -0.73516576      -0.35679052      -0.17189045
C       -1.01794122      -0.99711551      -1.55623564
C       -0.89213352       1.32275580       0.06178130
C       -0.15078595       1.47416490       1.38662158
C        1.05975914       0.54618516       1.29946039
C        0.82637437      -0.33122889      -0.00487666
C        1.68623646      -1.69342912      -0.13579252
C        1.19847530       0.76675810      -0.98533044
O        2.27368904       0.85864815      -1.49617719
C        0.12752337       1.78555426      -0.96714748
H       -2.65237124      -0.10223549       1.36124301
H       -0.81032103      -1.46038908       1.86417107
H       -2.20170500      -2.41068878       0.29201637
H       -0.78013267      -0.23685274      -2.45053816
H       -0.46416554      -1.97184485      -1.80235773
H       -2.12466319      -1.13687250      -1.72432774
H       -1.89249687       1.67131061      -0.04837241
H       -0.89457821       1.38782306       2.19982559
H        0.17043151       2.47832309       1.37871862
H        1.93478394       1.27049909       1.05361536
H        1.33882281      -0.00880267       2.23549029
H        2.76283344      -1.23229184      -0.37765983
H        1.70164943      -2.43581281       0.76734939
H        1.18614182      -2.29286404      -1.03052021
H       -0.26821989       1.92615111      -1.98122636
H        0.34021298       2.79650624      -0.66372495
27
Properties=species:S:1:pos:R:3 smiles=CC1CC2CCC1CC=OC2 name=camphor config_type=start_1 pbc="F F F"
C       -1.40710535      -1.30678859       0.77776381
C       -0.65843720      -0.43989046      -0.24769143
C       -1.24922823      -0.71987741      -1.60138430
C       -0.87711691       1.17455014       0.06980162
C       -0.11356687       1.47695602       1.36032692
C        1.02201103       0.62436366       1.39816180
C        0.80959192      -0.30972934       0.02974177
C        1.57040198      -1.62005785       0.00646067
C        1.28606122       0.79388442      -0.95768192
O        2.31571854       0.81127039      -1.59504214
C        0.10546739       1.81824386      -0.98728482
H       -2.56570819      -1.49645222       0.57743439
H       -1.09232116      -1.12891350       1.77146560
H       -0.95301524      -2.35019910       0.62877955
H       -0.68807674      -0.59774981      -2.47632397
H       -1.46345051      -1.90216500      -1.70503470
H       -2.26340284      -0.25664838      -1.80787028
H       -1.91125993       1.45510575       0.18826322
H       -0.81274734       1.31313775       2.15850140
H        0.22509753       2.51018117       1.25771063
H        1.99272305       1.10712993       1.49708420
H        0.82994076      -0.02133177       2.28774625
H        2.68480826      -1.45014161      -0.13160074
H        1.37062025      -2.29803116       0.86549481
H        1.24942581      -2.40218708      -0.83921961
H       -0.49826539       1.65303727      -1.93452618
H        0.53113521       2.97980848      -1.02067397
27
Properties=species:S:1:pos:R:3 smiles=CC1CC2CCC1CC=OC2 name=camphor config_type=start_2 pbc="F F F"
C       -1.58355820      -1.06806476       0.88842837
C       -0.61297517      -0.31027188      -0.19949589
C       -1.14225472      -0.80219864      -1.65067357
C       -0.80153067       1.15300531       0.01929197
C       -0.22976543       1.45203920       1.40732105
C        0.94873769       0.42564531       1.43408990
C        0.86379525      -0.42948148       0.08427219
C        1.84215866      -1.60808774      -0.15856786
C        1.20542216       0.72173884      -0.93945617
O        2.15127304       0.80741507      -1.70513666
C        0.14922103       1.82895975      -0.92022679
H       -2.64193142      -1.72181242      -0.16368307
H       -1.99241551       0.10237087       1.86040204
H       -0.45511666      -2.13171110       1.64236348
H       -0.20493183      -0.32700699      -2.27638883
H       -1.45536530      -1.81100113      -1.60744600
H       -2.10779228      -0.25323064      -1.73872386
H       -1.80859490       1.43540488      -0.21114271
H       -1.06110791       1.34004449       2.21094153
H        0.10288095       2.44517261       1.71907846
H        1.90434171       1.11181444       1.26102350
H        0.84897693      -0.23772538       2.31994655
H        2.88722946      -1.28612692      -0.26372760
H        1.56838511      -2.40393159       0.67924015
H        1.51025576      -2.23409615      -1.02587616
H       -0.27032929       1.87557576      -2.03036953
H        0.62059513       2.80188417      -0.70267915
27
Properties=species:S:1:pos:R:3 smiles=CC1CC2CCC1CC=OC2 name=camphor config_type=start_3 pbc="F F F"
C       -1.34257136      -1.14511907       0.82668878
C       -0.61809903      -0.36981177      -0.10956937
C       -1.01145824      -0.72335212      -1.50706370
C       -0.82404730       1.16553420      -0.03375755
C       -0.19336000       1.39063431       1.33780945
C        1.01580806       0.34634049       1.39218898
C        0.89639666      -0.29918145       0.01475786
C        1.49168167      -1.65075539       0.02488531
C        1.15948652       0.86740375      -1.08160903
O        2.21171116       0.81758331      -1.62328805
C        0.05594923       1.84670655      -1.04325148
H       -2.49185590      -1.40765246       0.37493630
H       -1.45751364      -0.66401944       1.95109603
H       -0.79790273      -2.14002566       0.92655158
H       -0.47041060      -0.32070047      -2.26759057
H       -0.94473069      -1.89244882      -1.61594973
H       -2.08329681      -0.36032613      -1.78594578
H       -2.00260919       1.31048085       0.06700544
H       -1.03570249       1.32194661       2.18109046
H        0.19153218       2.39438830       1.31960538
H        1.87669033       1.07430107       1.42987582
H        1.07764588      -0.29070825       2.23839462
H        2.55844066      -1.73796613       0.60618681
H        0.60314968      -2.46587439       0.54028580
H        1.37302562      -1.75475893      -1.14099944
H       -0.27721309       1.85582420      -2.12555401
H        0.47765364       2.84561225      -0.61272430
27
Properties=species:S:1:pos:R:3 smiles=CC1CC2CCC1CC=OC2 name=camphor config_type=start_4 pbc="F F F"
C       -1.24177056      -1.09253964       0.99474762
C       -0.68625830      -0.39078497      -0.19756299
C       -1.15860867      -0.93658399      -1.52120856
C       -0.85980537       1.23921409      -0.07103186
C       -0.44709068       1.30670724       1.41486630
C        0.90843517       0.51840803       1.38368591
C        0.80951845      -0.27211810      -0.00331463
C        1.56951300      -1.55225188      -0.11372111
C        1.29933378       0.81197528      -1.02286630
O        2.25777485       0.70957260      -1.77146346
C        0.31153924       1.92705413      -0.88692954
H       -2.43181637      -0.76230224       1.29984342
H       -0.49249454      -1.03932391       1.92325513
H       -1.33313639      -2.15535458       0.64996360
H       -0.49904385      -0.25410144      -2.29061097
H       -0.70638120      -2.03486512      -1.49956408
H       -2.21504325      -0.79571339      -1.86586451
H       -1.96283005       1.57133747      -0.13466716
H       -1.34824413       0.85085485       1.99197703
H       -0.33145165       2.50779563       1.68765570
H        1.85380867       1.04519041       1.72207280
H        0.80392564      -0.37159194       2.14995392
H        2.61043840      -1.69447598       0.72761658
H        0.53877363      -2.55179325       0.04706795
H        1.76662998      -1.53462205      -1.32671293
H        0.21226715       2.30474903      -2.04176644
H        0.88759204       2.83778915      -0.45901285
27
Properties=species:S:1:pos:R:3 smiles=CC1CC2CCC1CC=OC2 name=camphor config_type=start_5 pbc="F F F"
C       -1.56096162      -1.21833420       0.79617792
C       -0.76596530      -0.38879357      -0.16069272
C       -1.10497430      -0.88902624      -1.57911709
C       -0.82627941       1.25761940       0.08052035
C       -0.21717926       1.44983636       1.46758714
C        1.04249314       0.43344339       1.46870111
C        0.91738679      -0.28096072       0.02368993
C        1.65239820      -1.55745602      -0.06757059
C        1.28457771       0.85406824      -1.01496761
O        2.19822043       0.79430409      -1.75084513
C        0.17724549       1.80557984      -1.04931019
H       -2.67551398      -1.60978941       0.05322235
H       -2.13134545      -0.50292153       1.85536181
H       -0.87530192      -2.31056168       1.23705101
H       -0.76613409      -0.19281033      -2.36727776
H       -0.74917232      -1.92354776      -1.83787699
H       -2.25761019      -0.83303825      -1.62574705
H       -1.91886212       1.56811327      -0.18502402
H       -0.87514296       1.50254698       2.37994857
H        0.28831762       2.49481606       1.46712565
H        1.96988616       0.95670954       1.72306823
H        1.09562893      -0.34341665       2.27095334
H        2.86912570      -1.73568879       0.16437937
H        1.24530078      -2.27654036       0.76388904
H        1.50291753      -2.13343581      -0.93196880
H       -0.34710310       2.35786402      -2.05938418
H        0.80564761       2.67166905      -0.51085060
27
Properties=species:S:1:pos:R:3 smiles=CC1CC2CCC1CC=OC2 name=camphor config_type=start_6 pbc="F F F"
C       -1.57008591      -1.08423620       0.79917460
C       -0.63876487      -0.24004502      -0.14853713
C       -0.81401129      -0.96042687      -1.60087351
C       -0.94088010       1.22505739      -0.01380474
C       -0.22564220       1.39355715       1.51685107
C        0.99707607       0.47594154       1.42100186
C        0.91644498      -0.17359924       0.12054515
C        1.57599716      -1.64283603       0.00650302
C        1.27312602       0.73181842      -1.01564628
O        2.06932516       0.71435162      -1.94344912
C        0.13900196       1.90444248      -0.83828615
H       -2.73463772      -0.32150010       1.17095908
H       -0.91309205      -1.22820066       1.90211233
H       -1.94263173      -2.22683044       0.09274419
H       -0.45016960      -0.29268802      -2.57064810
H       -0.05506254      -2.04048849      -1.64526622
H       -2.07847066      -1.57628483      -1.90866736
H       -1.89800303       1.68650596      -0.26738900
H       -0.91770886       0.87767484       2.34211641
H       -0.10132412       2.39283286       1.80557058
H        1.90959028       1.04158276       1.42804004
H        0.95467713      -0.43448481       2.06907954
H        2.58412936      -1.54646529       0.32704371
H        1.13932547      -2.46618486       0.61165798
H        1.68314781      -1.90147012      -1.05396579
H       -0.06170126       2.25847102      -1.91718252
H        0.75390952       2.78332842      -0.29347085
27
Properties=species:S:1:pos:R:3 smiles=CC1CC2CCC1CC=OC2 name=camphor config_type=start_7 pbc="F F F"
C       -1.49935068      -1.07858076       0.93063110
C       -0.69340315      -0.43710630      -0.11729266
C       -1.04246906      -0.87613437      -1.51797008
C       -0.85372961       1.11174950       0.04357226
C       -0.10179496       1.55441596       1.37678768
C        0.94773249       0.48711223       1.27688938
C        0.85871735      -0.36978503       0.02901816
C        1.49732847      -1.71490674      -0.35569723
C        1.23697115       0.76601862      -0.90772617
O        2.36761001       1.03944559      -1.40176002
C        0.01662088       1.68420904      -1.10453542
H       -2.56264399      -0.76530683       0.80492103
H       -1.11928430      -0.72443980       1.92935738
H       -1.20014699      -2.10875291       1.01573241
H       -0.13063521      -0.71894864      -2.36489865
H       -1.24850439      -2.04633741      -1.28050549
H       -1.94198522      -0.35260521      -1.98479474
H       -1.96421509       1.62852629      -0.08212467
H       -0.58848233       1.55066105       2.45363025
H        0.10950141       2.78849227       1.05466216
H        2.04769608       0.81847807       1.27747165
H        0.85188270      -0.10110412       2.28733629
H        2.60046613      -1.78278279       0.28557585
H        0.85525215      -2.73032689       0.02641662
H        1.77441148      -1.81517005      -1.59284347
H       -0.25951554       1.35407695      -2.20576608
H        0.03537107       2.84406599      -1.06046151
27
Properties=species:S:1:pos:R:3 smiles=CC1CC2CCC1CC=OC2 name=camphor config_type=start_8 pbc="F F F"
C       -1.45923935      -1.20666288       0.74968961
C       -0.67039571      -0.34501921      -0.17476646
C       -0.94344588      -0.55518525      -1.68795502
C       -0.87464039       1.20453646       0.06113793
C       -0.26069437       1.38188768       1.46712603
C        0.94950019       0.51704335       1.52443206
C        0.95307914      -0.27622298       0.22151764
C        1.74218609      -1.64804753       0.10503991
C        1.23556230       0.78395988      -0.99968069
O        2.00501697       0.59634916      -2.03057009
C        0.13086902       1.81780300      -0.88812568
H       -2.54382776      -1.64471075       0.15351474
H       -1.73065065      -0.72953023       1.90751894
H       -0.68954148      -2.12851253       0.89998054
H        0.10915022      -0.64692202      -2.38955812
H       -1.31519794      -1.78089259      -1.84191486
H       -1.81851087       0.27955138      -2.26859928
H       -1.82343251       1.69004818       0.04473020
H       -1.01562940       0.87084908       2.30549923
H       -0.37609415       2.56005768       1.81974310
H        1.93258667       0.94238443       1.63785476
H        0.83088025      -0.16091650       2.26475434
H        2.81546320      -1.26004068      -0.69356462
H        1.89506153      -1.97784809       1.33919648
H        0.98095301      -2.52801886      -0.60833116
H        0.06976317       2.10178724      -2.12958003
H        0.49815914       2.76332979      -0.52617598
27
Properties=species:S:1:pos:R:3 smiles=CC1CC2CCC1CC=OC2 name=camphor config_type=start_9 pbc="F F F"
C       -1.37242198      -1.25975039       0.70984155
C       -0.78722509      -0.22510780      -0.16384810
C       -0.98925139      -0.68731846      -1.61447383
C       -0.92791250       1.23132030       0.08671974
C       -0.17261572       1.52317734       1.47313811
C        0.96912231       0.46567243       1.41628071
C        0.92320263      -0.26151816       0.13802500
C        1.63694660      -1.60260492      -0.05096509
C        1.22278446       0.61353325      -0.98263504
O        2.19277682       0.63824225      -1.75633615
C        0.04783465       1.90413353      -0.94582536
H       -2.56677626      -2.36776772      -0.00396823
H       -1.94532460      -0.44404406       1.84317183
H       -0.13380973      -2.19894387       1.20964552
H       -0.51630215      -0.29307550      -2.42241079
H       -0.58302107      -1.73921844      -1.66632381
H       -2.02165726      -0.59940778      -1.89892358
H       -1.98030920       1.44165147       0.09395477
H       -0.92642150       1.64118579       2.23243497
H        0.41725989       2.49322576       1.31386088
H        1.96720254       0.92592085       1.76354050
H        1.02745662      -0.23743204       2.26184024
H        2.73514179      -1.68863531      -0.06688065
H        1.14479820      -2.33669148       0.57882952
H        1.27120789      -1.93994321      -1.20132445
H       -0.53124727       1.84391107      -1.96916953
H        0.48496002       2.85970962      -0.78982998
27
Properties=species:S:1:pos:R:3 smiles=CC1CC2CCC1CC=OC2 name=camphor config_type=start_10 pbc="F F F"
C       -1.46957442      -1.17208364       0.82268703
C       -0.70743093      -0.26793740      -0.19564391
C       -1.39039685      -0.80660563      -1.53417900
C       -0.84148477       1.22211515       0.04577209
C       -0.18685637       1.39341946       1.35548797
C        1.09561824       0.39211706       1.25739548
C        0.89511718      -0.33646511      -0.00435231
C        1.63360938      -1.62289545       0.04696586
C        1.36098477       0.68081256      -1.01320521
O        2.41923035       1.04389487      -1.52444900
C        0.00448002       1.67425965      -1.07567329
H       -2.59027614      -1.61378536       0.32108629
H       -1.91337849      -0.43446745       1.82657494
H       -0.77639805      -2.15913413       0.90805744
H       -0.75217692      -0.45554249      -2.33368053
H       -1.49930336      -1.88693376      -1.49575292
H       -2.40718568      -0.27245517      -1.72478578
H       -1.87380541       1.67130490       0.16923039
H       -0.94960146       0.93461126       2.14018277
H        0.12085803       2.36202104       1.55866072
H        1.97197516       0.91907865       1.29509730
H        1.15624244      -0.27599394       2.10324375
H        2.64498244      -1.27514949      -0.01604979
H        1.34106277      -2.12532537       1.07495152
H        1.58704652      -2.34861470      -0.90863716
H       -0.35143014       1.68660491      -2.01685507
H        0.40412236       2.68795219      -1.00132362
27
Properties=species:S:1:pos:R:3 smiles=CC1CC2CCC1CC=OC2 name=camphor config_type=start_11 pbc="F F F"
C       -1.47435534      -1.04261211       0.95850727
C       -0.67705612      -0.36447823      -0.25398334
C       -1.21246040      -0.79390003      -1.53460129
C       -0.89961262       1.14607183      -0.00284492
C       -0.39186206       1.31975556       1.38925480
C        1.06497081       0.52199756       1.23225633
C        0.86753079      -0.31940184      -0.10255730
C        1.70906004      -1.55701167      -0.08134729
C        1.27872900       0.68917703      -0.99877071
O        2.40438122       0.76945479      -1.52845720
C        0.11277479       1.84967529      -0.97461530
H       -2.55346631      -0.05879918       1.46666701
H       -0.53837790      -1.20576233       1.98277491
H       -2.12513875      -2.27116016       0.32198347
H       -0.89742003      -0.00926640      -2.48321281
H       -0.53173929      -1.86935534      -1.86023069
H       -2.43485301      -1.07367364      -1.47104711
H       -1.97851868       1.55867609      -0.11051183
H       -1.02609610       0.50730440       2.12613671
H       -0.19232211       2.32353488       1.88797963
H        2.02876702       1.32228960       1.24269791
H        1.18732234       0.01191438       2.22393999
H        2.87087630      -1.40988752      -0.23985006
H        1.45506464      -1.85545382       1.07352163
H        1.33639158      -2.41509500      -0.70850140
H       -0.32275130       1.88541240      -2.06194213
H        0.26238037       2.84149957      -0.54657225
27
Properties=species:S:1:pos:R:3 smiles=CC1CC2CCC1CC=OC2 name=camphor config_type=start_12 pbc="F F F"
C       -1.41401085      -1.07769092       0.82911437
C       -0.70310054      -0.32959326      -0.22305681
C       -1.24953234      -0.95528169      -1.52922263
C       -0.89203775       1.26834342       0.00583585
C       -0.32617264       1.32419688       1.46296281
C        0.88313616       0.39379279       1.49588891
C        0.85527786      -0.23927873       0.15385498
C        1.83762834      -1.41425632      -0.25451475
C        1.28771798       0.92237556      -0.89782723
O        2.26439496       0.50521498      -1.71559542
C        0.29148568       1.88674872      -1.08212225
H       -2.50075484      -0.68345199       0.96279322
H       -0.91313899      -1.06249010       1.92273660
H       -1.33358178      -2.18090592       0.49304683
H       -1.05981259      -0.34248664      -2.50376508
H       -1.22527965      -2.01391130      -1.47863360
H       -2.42781460      -0.72391341      -1.25628626
H       -1.93874284       1.54533070      -0.27104296
H       -1.30038675       0.96667726       1.94182711
H       -0.00460775       2.35871998       1.78606646
H        1.84138040       0.99477787       1.73653704
H        0.77279572      -0.26354170       2.36838558
H        2.86233897      -0.86792368       0.04217856
H        1.59654186      -2.36310477       0.37290638
H        1.73048722      -1.71339884      -1.31762385
H        0.17958163       1.89941466      -2.15654518
H        0.18834178       2.99261145      -0.75867394
27
Properties=species:S:1:pos:R:3 smiles=CC1CC2CCC1CC=OC2 name=camphor config_type=start_13 pbc="F F F"
C       -1.52337984      -1.17484471       0.83925153
C       -0.63704250      -0.39212558      -0.07990814
C       -1.03600770      -0.90319329      -1.67157684
C       -0.84096552       1.05755266       0.14497804
C       -0.06783931       1.49117145       1.39820290
C        1.07178087       0.49979577       1.49865129
C        0.81913407      -0.26422105       0.11716326
C        1.42792500      -1.60847470      -0.09844337
C        1.24509191       0.80929023      -1.13036142
O        2.37807329       0.93656571      -1.60968063
C       -0.01516457       1.73995427      -1.08996480
H       -2.53716490      -0.75707044       0.42203245
H       -1.44590337      -0.74559022       1.89772601
H       -1.47772097      -2.24482842       0.75817562
H        0.07966181      -0.89513135      -2.33433621
H       -1.47117615      -2.18575860      -1.49151153
H       -1.95574127      -0.09614679      -2.30040478
H       -1.84457119       1.53316936      -0.02419785
H       -0.49245664       1.07727832       2.41547345
H        0.10605145       2.64791045       1.17838792
H        2.08692526       0.91450333       1.46582711
H        0.91912680      -0.28846818       2.16899021
H        2.51419081      -1.34281093       0.00743300
H        0.93396939      -2.48958150       0.48604685
H        1.22802602      -1.76668600      -1.26565134
H       -0.60190691       1.74716829      -2.01652133
H        0.13644243       2.83868233      -0.76993322
27
Properties=species:S:1:pos:R:3 smiles=CC1CC2CCC1CC=OC2 name=camphor config_type=start_14 pbc="F F F"
C       -1.54805238      -1.31693071       0.77940464
C       -0.68748196      -0.35539173      -0.16341303
C       -1.02522219      -0.65341729      -1.60010302
C       -0.79224088       1.17182625       0.12684037
C       -0.19767420       1.42866330       1.42410756
C        1.04908267       0.52116016       1.46328345
C        0.92326296      -0.31013778       0.12252337
C        1.55944285      -1.64634290       0.00248417
C        1.20548572       0.70084278      -1.11178786
O        2.22445716       0.90255982      -1.71910590
C        0.08561403       1.77096771      -1.06518778
H       -2.50828730      -1.86264167      -0.23620523
H       -2.02570817      -0.41567987       1.84814920
H       -0.61934023      -2.35862288       1.22746202
H       -0.20613328      -0.68717452      -2.52030894
H       -1.65417893      -1.81623037      -1.54322849
H       -1.92186569       0.13258979      -2.04555479
H       -1.72861216       1.47764082       0.02983859
H       -0.77820708       1.27237570       2.45252315
H        0.26183556       2.43690253       1.51398415
H        1.97408308       1.00371549       1.40425726
H        0.95071912      -0.23941851       2.30604955
H        2.72287586      -1.38840686      -0.64684915
H        1.78258477      -1.83899608       1.41926652
H        0.64903347      -2.79358469      -0.59003465
H       -0.30595686       2.12092696      -1.95359308
H        0.49078940       2.77273080      -0.92413523
27
Properties=species:S:1:pos:R:3 smiles=CC1CC2CCC1CC=OC2 name=camphor config_type=start_15 pbc="F F F"
C       -1.25799832      -1.25942139       0.84440751
C       -0.64851722      -0.37051141      -0.25767109
C       -1.22768965      -0.84492919      -1.65643730
C       -0.80197688       1.20680998       0.04840403
C       -0.25152768       1.43350648       1.42126037
C        0.93458527       0.45730367       1.35231478
C        0.79228998      -0.23036005      -0.04436102
C        1.50494437      -1.59086925       0.09808680
C        1.22129119       0.86231011      -1.00035293
O        2.19107651       0.72723512      -1.68484771
C        0.26866037       1.91386148      -0.95967991
H       -2.37764064      -1.62254403       0.69375730
H       -1.16149968      -0.71321411       1.80372118
H       -0.33689258      -2.23793936       0.83290403
H       -0.62338746      -0.48833236      -2.49063766
H       -1.46289061      -2.02807671      -1.88635806
H       -2.21424689      -0.28491039      -1.62324584
H       -1.86067617       1.46972281      -0.15941471
H       -0.98593585       1.09512073       2.28072124
H       -0.01643496       2.49485149       1.63435712
H        1.97260381       0.96252607       1.64953706
H        0.88941697      -0.41019155       2.08083601
H        2.57638628      -1.39628805       0.07664048
H        1.50123886      -2.15416537       1.25091569
H        1.42010064      -2.34168925      -0.76451034
H       -0.09105553       2.31331381      -2.00498448
H        0.83640357       2.76473344      -0.60496927
27
Properties=species:S:1:pos:R:3 smiles=CC1CC2CCC1CC=OC2 name=camphor config_type=start_16 pbc="F F F"
C       -1.50854046      -1.20140650       0.87173697
C       -0.73529961      -0.27657318      -0.15850052
C       -1.08003036      -0.76502563      -1.54661192
C       -0.82520731       1.19887887      -0.01114480
C       -0.28747022       1.41096056       1.36463953
C        1.02678122       0.47019151       1.35262936
C        0.85993660      -0.27718576       0.02936069
C        1.73405733      -1.60467430      -0.07304612
C        1.17696384       0.69304998      -1.09901991
O        2.25257320       0.71488863      -1.67748043
C        0.12065177       1.86450062      -0.85762246
H       -2.65150223      -1.49480329       0.50045091
H       -1.67685283      -0.72023748       1.85046215
H       -0.92655374      -2.21272141       0.86007632
H       -0.61913378       0.06989111      -2.25536900
H       -0.39402178      -1.70625638      -1.70523946
H       -2.33379063      -1.07421629      -1.61307273
H       -1.89304786       1.61708528      -0.22244436
H       -0.90940246       1.23622981       2.23334317
H        0.22654120       2.35890025       1.33677573
H        1.88981122       1.20383900       1.72974876
H        0.90175744      -0.25679459       2.19637775
H        2.76285017      -1.40486913      -0.13630451
H        1.32674965      -2.04833539       0.82679607
H        1.42647175      -2.22524736      -0.96317735
H       -0.20535095       2.21448038      -1.98129449
H        0.78555238       2.83627283      -0.32081824
27
Properties=species:S:1:pos:R:3 smiles=CC1CC2CCC1CC=OC2 name=camphor config_type=start_17 pbc="F F F"
C       -1.52002593      -1.17871255       0.83891615
C       -0.63188401      -0.43636774      -0.12801359
C       -1.30940781      -0.81686784      -1.56293624
C       -0.77914174       1.28910754      -0.02020540
C       -0.16730213       1.47697770       1.41822006
C        0.84307603       0.27098007       1.61396860
C        0.87250532      -0.33571987       0.07411159
C        1.84068936      -1.46801055      -0.16027476
C        1.25683465       0.86348397      -1.00161728
O        2.27545232       0.80057827      -1.68764405
C        0.16328829       1.82100298      -1.13439780
H       -2.70862292      -1.55558186       0.44992591
H       -1.71563391      -0.78931088       2.00944736
H       -1.08208518      -2.25775090       1.11303842
H       -0.32709879      -0.79429219      -2.35029040
H       -1.86597040      -1.93779950      -1.64818135
H       -2.29530381      -0.01224090      -1.88319296
H       -1.85575011       1.40803996      -0.24578086
H       -1.03058768       1.48151359       2.16367392
H        0.29914190       2.45295670       1.77718041
H        1.94292990       0.57605297       1.99902687
H        0.32142201      -0.48540226       2.31678013
H        2.93390327      -0.93785992      -0.96846362
H        2.36325848      -1.79210224       1.27251314
H        0.90420939      -2.33472260      -0.97509410
H       -0.05771861       1.46891140      -2.24913526
H        0.49063659       2.86256666      -1.05996117
27
Properties=species:S:1:pos:R:3 smiles=CC1CC2CCC1CC=OC2 name=camphor config_type=start_18 pbc="F F F"
C       -1.63194510      -1.02416270       0.99367283
C       -0.69821340      -0.41862266      -0.13679378
C       -1.06244544      -0.95677297      -1.47068861
C       -0.82261268       1.24605183      -0.02529830
C       -0.10733896       1.40442658       1.32981315
C        0.92796841       0.30844230       1.46786691
C        0.85012873      -0.28238385       0.08652654
C        1.69407019      -1.43949426      -0.39205686
C        1.22600636       0.84013627      -0.97137118
O        2.32740385       0.86524775      -1.41626282
C        0.04316974       1.68956203      -1.20255957
H       -2.65277847      -0.43025167       1.05706028
H       -1.09123839      -0.88937990       1.93566523
H       -1.67684227      -2.19900418       0.93552878
H       -0.26491927      -0.66084507      -2.18292353
H       -1.10625327      -2.18636553      -1.44183430
H       -2.05320846      -0.39790096      -2.04550711
H       -1.84688819       1.56960979       0.07952667
H       -0.91516035       1.14462102       2.03024663
H        0.18450413       2.51173831       1.49030889
H        2.01659937       0.50024858       1.76854909
H        0.61290456      -0.48230229       2.22188272
H        2.77491016      -1.01915103      -0.59139495
H        1.66307596      -2.47004756       0.27082053
H        1.34795405      -1.56807408      -1.46264054
H       -0.32080716       1.55862368      -2.18389551
H        0.60399050       2.75894609      -1.38942748
27
Properties=species:S:1:pos:R:3 smiles=CC1CC2CCC1CC=OC2 name=camphor config_type=start_19 pbc="F F F"
C       -1.64271885      -1.28563538       0.68758088
C       -0.66246668      -0.37125065      -0.13492085
C       -0.92133632      -0.86486853      -1.48729357
C       -0.75001608       1.20808781       0.08709056
C       -0.05065950       1.53375256       1.39370779
C        1.01052330       0.44972382       1.47797519
C        0.85178505      -0.23842373       0.12872955
C        1.62211952      -1.55930954      -0.19009434
C        1.17198975       0.87478924      -0.91013841
O        2.14751978       0.74294459      -1.73161022
C        0.04014201       1.79224707      -0.99048040
H       -2.65501904      -1.62900762      -0.11401016
H       -2.14345148      -0.33600560       1.61477557
H       -0.84979608      -2.19400724       1.01140350
H       -0.07666843      -0.53202550      -2.26044996
H       -1.09830867      -1.97094425      -1.40652805
H       -2.04712807      -0.58227874      -1.91088797
H       -1.74157079       1.64509922      -0.08847837
H       -0.82430761       1.71690195       2.34667797
H        0.46544436       2.54773077       1.18104765
H        2.10122889       0.79232647       1.44110688
H        0.99084554      -0.36304187       2.24328088
H        2.70925257      -1.66244881       0.45005693
H        0.92259766      -2.39760984       0.32570776
H        1.51637316      -1.87994304      -1.26714385
H       -0.56826067       1.61065023      -1.91306779
H        0.44432386       2.86808928      -0.72013244
27
Properties=species:S:1:pos:R:3 smiles=CC1CC2CCC1CC=OC2 name=camphor config_type=start_20 pbc="F F F"
C       -1.33016640      -1.19591992       0.89302765
C       -0.74586589      -0.22222331      -0.18116619
C       -0.89860116      -0.92526317      -1.57751568
C       -0.81525231       1.21786142       0.01578226
C       -0.26629522       1.33453024       1.44806497
C        1.03020328       0.41798517       1.45700218
C        0.80320318      -0.12766790       0.02458437
C        1.32109478      -1.55589992      -0.01312626
C        1.22835708       0.82302383      -1.02641441
O        2.22571225       0.74857572      -1.78402528
C        0.21316987       1.82485237      -0.97628663
H       -2.41898821      -0.60103619       1.15835949
H       -0.61260313      -1.39242513       1.95238044
H       -1.60995024      -2.22874329       0.12712454
H       -0.48699999      -0.28519460      -2.50786492
H        0.04719059      -1.91907015      -1.48765550
H       -2.17489211      -1.67872360      -1.84859043
H       -1.85293914       1.61258065      -0.07126720
H       -1.11707695       1.02363367       2.07223470
H        0.08221581       2.41570166       1.47913044
H        1.98013021       1.04222865       1.47096534
H        0.97180449      -0.22185271       2.32216488
H        2.46244208      -1.47041530       0.22576370
H        0.54654930      -2.29292309       0.51956703
H        1.39764884      -1.72027458      -1.16755022
H       -0.29226075       1.87870619      -1.90439585
H        0.52148471       2.75913690      -0.59815447
27
Properties=species:S:1:pos:R:3 smiles=CC1CC2CCC1CC=OC2 name=camphor config_type=start_21 pbc="F F F"
C       -1.54888242      -1.07265707       0.95405808
C       -0.72154649      -0.28865027      -0.16415981
C       -1.11558276      -0.98039512      -1.48999227
C       -0.82440800       1.17865644      -0.06053420
C       -0.18709078       1.34448447       1.40979858
C        1.06153713       0.48245631       1.31349568
C        0.83405398      -0.32206987       0.03971823
C        1.64584992      -1.55868383      -0.31715827
C        1.19147320       0.70715616      -0.94506117
O        2.31945415       0.97570480      -1.43237212
C        0.15059417       1.68481189      -1.06181325
H       -2.66566162      -1.19354568       0.28606757
H       -1.84486199      -0.41504807       1.88191214
H       -1.11423805      -2.17246867       1.19791065
H       -0.08407782      -0.81518592      -2.15782333
H       -1.73284804      -2.07834302      -1.48573940
H       -2.04131300      -0.02239958      -1.86347527
H       -1.86119746       1.57905832      -0.23067181
H       -0.76501269       1.16476702       2.25954125
H        0.02432066       2.43124247       1.51472011
H        1.94520597       1.09034843       1.23392738
H        0.96638507      -0.30864630       2.11916194
H        2.70730984      -1.20780510      -0.57542979
H        1.59604186      -2.10370092       0.58090129
H        0.91935788      -2.04628857      -1.19129514
H       -0.11281532       1.77191688      -2.02666387
H        0.66562646       2.60331640      -0.78373566
27
Properties=species:S:1:pos:R:3 smiles=CC1CC2CCC1CC=OC2 name=camphor config_type=start_22 pbc="F F F"
C       -1.37779132      -1.30583988       0.81267027
C       -0.61496838      -0.31488680      -0.15006103
C       -0.93447125      -0.64862892      -1.70758195
C       -0.90251468       1.25686450       0.08233665
C       -0.33057187       1.47284651       1.54056573
C        0.90353919       0.60983899       1.44898370
C        0.87267539      -0.34211724       0.10563788
C        1.67729256      -1.60863860       0.03676050
C        1.23521497       0.63104437      -0.98390259
O        2.01450427       0.62845730      -1.98507418
C        0.20098084       1.84074208      -0.90388263
H       -2.53842728      -1.20594007       0.46988717
H       -1.18214918      -1.25778774       1.94611930
H       -1.17134997      -2.29756193       0.45304111
H        0.20912497      -0.51704552      -2.25609045
H       -1.26537141      -1.75346381      -1.60084266
H       -1.77655135       0.24305329      -2.37598963
H       -1.92489363       1.65467957       0.07150155
H       -0.99168700       1.37884703       2.34755688
H        0.17558884       2.52406428       1.51669312
H        1.81863271       1.04719225       1.59828872
H        0.90170375      -0.08052126       2.30905770
H        2.69151441      -1.44437938       0.53763057
H        1.14430121      -2.28167762       0.71185252
H        2.00624662      -1.93780637      -1.01734335
H       -0.33577673       2.07772956      -1.92232003
H        0.78090444       2.67773620      -0.44580530
27
Properties=species:S:1:pos:R:3 smiles=CC1CC2CCC1CC=OC2 name=camphor config_type=start_23 pbc="F F F"
C       -1.42811074      -1.25351038       0.81686940
C       -0.71285681      -0.32655462      -0.14146329
C       -1.15735582      -0.71280893      -1.48747944
C       -0.77513938       1.24261890      -0.02350619
C       -0.07442311       1.48054051       1.33991299
C        0.97102845       0.37205110       1.44351723
C        0.83380228      -0.32971815       0.06188593
C        1.64827679      -1.56970965      -0.06675736
C        1.18574080       0.72559634      -1.04654218
O        2.27464682       0.86462037      -1.54504058
C        0.05179749       1.78883509      -1.15857334
H       -2.56019588      -1.83168154      -0.24487302
H       -1.96902714      -0.63235731       1.85618775
H       -0.55407179      -2.23979181       1.00957886
H       -0.64685689      -0.05375855      -2.19869044
H       -0.83214803      -1.82449421      -1.60777361
H       -2.39230422      -0.79628333      -1.60305852
H       -1.94631973       1.53401186       0.43950250
H       -0.83355882       1.52874317       2.20192419
H        0.40667893       2.49878534       1.44174274
H        2.08973845       0.56477714       1.64613068
H        0.66716000      -0.38133177       2.25636474
H        2.83975174      -1.44369368       0.16982794
H        1.18788018      -2.38828524       0.51699115
H        1.34794700      -1.95792252      -0.98996969
H       -0.59993091       1.70295987      -2.06637666
H        0.43027613       2.87460575      -0.99051999
27
Properties=species:S:1:pos:R:3 smiles=CC1CC2CCC1CC=OC2 name=camphor config_type=start_24 pbc="F F F"
C       -1.43907464      -1.26428116       0.83976985
C       -0.70463939      -0.37141482      -0.15159291
C       -1.01158685      -0.93054644      -1.44924596
C       -0.77093790       1.38995679      -0.04243623
C       -0.04075974       1.54765039       1.42132074
C        0.93837738       0.34862981       1.40283580
C        0.80826641      -0.34016014      -0.00203002
C        1.54287240      -1.59490422      -0.07468748
C        1.15996160       0.76014569      -0.94914075
O        2.22059221       0.86728880      -1.55669972
C        0.06860515       1.87969640      -1.15149513
H       -2.53325397      -1.10885650       0.73367381
H       -1.07378149      -1.38550363       1.91624364
H       -1.06137591      -2.29454655       0.40818002
H       -0.94350923      -0.02219934      -2.33290320
H       -0.35252338      -2.00268186      -1.75121142
H       -2.26208654      -1.11580666      -1.72436552
H       -1.87892357       1.55634626      -0.06081904
H       -1.06458206       1.48572197       2.10190228
H        0.41661490       2.65477984       1.42027474
H        1.99212749       0.77926517       1.45889894
H        0.61573784      -0.39454977       2.07338608
H        2.52062751      -1.46014729       0.11484874
H        1.09846482      -2.54301313       0.51684022
H        1.53077885      -2.00541147      -1.13899232
H       -0.16184885       1.94974059      -2.24768093
H        0.54966137       2.92910035      -0.72405252
