20
Properties=species:S:1:pos:R:3 smiles=CCCCCC config_type=start_0 pbc="F F F"
C        3.04621900       0.34164300       0.18343200
C        1.80879300      -0.53147300       0.35713100
C        0.65850900       0.25347700      -0.20192300
C       -0.61718700      -0.53229800      -0.31427500
C       -1.74847100       0.44490400      -0.04501600
C       -3.10468300      -0.19211400      -0.12830000
H        3.07191700       0.61137000      -0.89603400
H        3.97059100      -0.16163800       0.49171300
H        2.83041900       1.27970000       0.72364300
H        1.95553500      -1.49483200      -0.15109400
H        1.65987800      -0.66393300       1.45259200
H        0.94817300       0.61138400      -1.21878800
H        0.52392400       1.14101400       0.46356700
H       -0.65689500      -1.42375200       0.32705000
H       -0.72439600      -0.88198800      -1.37265300
H       -1.56600400       0.86221200       0.97490900
H       -1.65201100       1.23799000      -0.82135000
H       -3.12042500      -1.24233500       0.20464600
H       -3.79445100       0.43883500       0.48861300
H       -3.48943400      -0.09816800      -1.16877000
20
Properties=species:S:1:pos:R:3 smiles=CCCCCC config_type=start_1 pbc="F F F"
C       -2.54002900       0.11770100       0.60488000
C       -1.73350200       0.21077700      -0.64114500
C       -0.54708000      -0.67780600      -0.71816000
C        0.50436200      -0.42873200       0.32154800
C        1.38086000       0.76735400       0.00675200
C        2.85104300       0.41300400       0.20231100
H       -1.99426800      -0.18821100       1.50509900
H       -3.42245200      -0.56695500       0.52895600
H       -2.98107800       1.12550500       0.79347600
H       -1.39064800       1.25203100      -0.86520900
H       -2.40512200      -0.06337200      -1.49341300
H       -0.06328400      -0.50152100      -1.71161700
H       -0.87743400      -1.72537300      -0.61173100
H        0.10792400      -0.34944500       1.34725800
H        1.18229100      -1.32056500       0.30474500
H        1.10856700       1.59727200       0.70708700
H        1.17961700       1.14582500      -1.02018900
H        3.10074700       0.68336800       1.24213000
H        3.04308800      -0.66867000      -0.01379700
H        3.49639900       1.01010400      -0.48898200
20
Properties=species:S:1:pos:R:3 smiles=CCCCCC config_type=start_2 pbc="F F F"
C       -1.93692700       1.00541700       0.21922800
C       -1.29580500       0.05986000      -0.75756900
C       -0.72739100      -1.17516400      -0.12397400
C        0.46259400      -0.91994500       0.75301500
C        1.67279800      -0.51944100      -0.04509800
C        1.90716600       0.97355400      -0.01832700
H       -2.45511600       1.78016300      -0.38202400
H       -2.67728800       0.45536900       0.82292800
H       -1.22736500       1.50342700       0.89530400
H       -2.10949700      -0.28729900      -1.44427300
H       -0.54753700       0.55254400      -1.39623200
H       -1.50965300      -1.73303200       0.41486900
H       -0.36790000      -1.82063400      -0.96531800
H        0.69080200      -1.87544700       1.27770400
H        0.20054700      -0.19329000       1.53938400
H        1.52817000      -0.86329800      -1.09452500
H        2.57202400      -1.04039200       0.35748100
H        2.21371200       1.34007100      -1.02450700
H        0.95444200       1.49276700       0.21331500
H        2.65222400       1.26477000       0.75861800
20
Properties=species:S:1:pos:R:3 smiles=CCCCCC config_type=start_3 pbc="F F F"
C       -2.81009600       0.38517000       0.37252800
C       -1.63735300      -0.54465700       0.52251900
C       -0.66547900      -0.47987000      -0.61844200
C        0.72821600      -0.72939800      -0.05330700
C        1.42035700       0.60106800      -0.00158300
C        2.90081800       0.50535800      -0.28784200
H       -2.57234900       1.32547400       0.88925300
H       -3.09139600       0.54612700      -0.69433600
H       -3.69945400      -0.08535600       0.86380200
H       -1.10503900      -0.29895000       1.47613000
H       -2.00636900      -1.59051500       0.67627500
H       -0.68963000       0.46601800      -1.18064900
H       -0.89664100      -1.32675000      -1.30509400
H        1.28400200      -1.48922200      -0.64344900
H        0.66804300      -1.14394500       0.98478400
H        0.98103800       1.32570100      -0.71333600
H        1.32761000       1.01186900       1.03356500
H        3.47772900       0.28794400       0.64637500
H        3.14768700      -0.26477900      -1.03556700
H        3.23830500       1.49871100      -0.66922100
20
Properties=species:S:1:pos:R:3 smiles=CCCCCC config_type=start_4 pbc="F F F"
C       -3.01804800      -0.10713900       0.04817400
C       -1.66672900       0.53473800       0.23365100
C       -0.64625500      -0.55730600       0.44045400
C        0.73170400      -0.03393900       0.72532100
C        1.66320300      -0.31007200      -0.44957100
C        2.95062300       0.43140100      -0.13220000
H       -3.16251900      -0.80040600       0.90774100
H       -3.11653300      -0.63512600      -0.92528900
H       -3.79572200       0.68765200       0.16878400
H       -1.72327500       1.15403800       1.15232800
H       -1.36615000       1.17174800      -0.61072200
H       -1.00965300      -1.17073800       1.30341000
H       -0.58453800      -1.19158300      -0.47010500
H        0.75171300       1.05376900       0.94987800
H        1.17917200      -0.57653600       1.59597000
H        1.22840500      -0.01608400      -1.41388600
H        1.81691800      -1.41381500      -0.47065300
H        2.77833300       1.27410800       0.57984500
H        3.37740200       0.80361600      -1.08168100
H        3.61194600      -0.29832500       0.38838800
20
Properties=species:S:1:pos:R:3 smiles=CCCCCC config_type=start_5 pbc="F F F"
C        2.37382400      -0.33329100       0.64841800
C        1.54050500      -0.35113600      -0.62274800
C        0.61961000       0.83362700      -0.71644500
C       -0.82783500       0.44249100      -0.85705100
C       -1.61562500       0.58061700       0.41528600
C       -2.18030000      -0.78252500       0.79107500
H        3.32830600      -0.87868300       0.45935500
H        1.87875300      -0.84945100       1.48831300
H        2.62894600       0.72592400       0.86993400
H        2.26641200      -0.40707700      -1.47219500
H        0.95086800      -1.30093700      -0.67145200
H        0.91849200       1.39817200      -1.63606500
H        0.78908500       1.52337800       0.13115300
H       -1.31221100       1.08802100      -1.63136200
H       -0.85665100      -0.58975700      -1.27687300
H       -1.04365000       1.02938100       1.24755900
H       -2.50857800       1.23961100       0.27390100
H       -3.18992400      -0.68709700       1.26327000
H       -2.31335600      -1.39109100      -0.13707600
H       -1.44667200      -1.29017600       1.43300100
20
Properties=species:S:1:pos:R:3 smiles=CCCCCC config_type=start_6 pbc="F F F"
C        2.50915800      -0.45219400      -0.08963100
C        1.84537900       0.88204400      -0.16415400
C        0.49744300       0.97139100       0.44539800
C       -0.35515200      -0.25656200       0.32605400
C       -1.80367500       0.20457500       0.19096900
C       -2.65853100      -0.98920300      -0.15125600
H        3.29668400      -0.46854400      -0.88413200
H        1.85241600      -1.31662800      -0.25130500
H        3.05518600      -0.54920400       0.87797200
H        1.80386800       1.22967300      -1.22188100
H        2.51674900       1.61107900       0.35813500
H        0.58068500       1.25289400       1.51525800
H       -0.03955500       1.82598100      -0.03988600
H       -0.13524200      -0.86863800      -0.56024400
H       -0.29827800      -0.80982900       1.28252800
H       -1.90573500       1.01610000      -0.55889100
H       -2.17203300       0.63524400       1.15356400
H       -3.04935600      -1.42757900       0.79455400
H       -3.49618200      -0.72994200      -0.81168800
H       -2.04382800      -1.76065700      -0.63408400
20
Properties=species:S:1:pos:R:3 smiles=CCCCCC config_type=start_7 pbc="F F F"
C       -2.89074600       0.15920500       0.70390200
C       -1.69690400      -0.19890300      -0.13981300
C       -0.45362600       0.44048600       0.44608600
C        0.59570600       0.42287500      -0.63003200
C        1.56546400      -0.71861200      -0.50064000
C        2.89866900      -0.14320400      -0.03860700
H       -3.46453500       0.98646500       0.25764200
H       -2.53652800       0.49958700       1.69873300
H       -3.49656400      -0.77520300       0.79760100
H       -1.86688200       0.20431500      -1.15558700
H       -1.52699800      -1.28249300      -0.20069300
H       -0.05939600      -0.17394700       1.29426500
H       -0.74294400       1.46044500       0.76360000
H        1.10667300       1.41674400      -0.60042600
H        0.10852900       0.37707700      -1.63702500
H        1.65864700      -1.24901400      -1.45939800
H        1.26649800      -1.46616000       0.25450400
H        2.62528200       0.63923300       0.71407200
H        3.36062700       0.31071800      -0.93979500
H        3.54902700      -0.90961400       0.42244500
20
Properties=species:S:1:pos:R:3 smiles=CCCCCC config_type=start_8 pbc="F F F"
C        2.78364900       0.01464900      -0.08512900
C        1.60416700      -0.00569500       0.85353600
C        0.33867200       0.50484400       0.17370800
C       -0.42240200      -0.63944400      -0.38559000
C       -1.89306800      -0.60672300      -0.24613700
C       -2.48077600       0.61359300       0.38579400
H        3.71006300       0.29514900       0.47330200
H        2.65867000       0.77487500      -0.87564600
H        2.92869800      -0.97159600      -0.57120000
H        1.80324800       0.53066400       1.79792200
H        1.44050400      -1.07444200       1.13811700
H        0.67713600       1.19420100      -0.63980800
H       -0.18288900       1.12584500       0.90508900
H       -0.11576200      -0.74858100      -1.45718600
H       -0.05410100      -1.57959000       0.09937700
H       -2.30056300      -1.48631000       0.31428800
H       -2.35375400      -0.67591200      -1.26490500
H       -2.45173600       1.50405500      -0.28973800
H       -2.11573600       0.83052700       1.40191500
H       -3.57401900       0.39989300       0.51533300
20
Properties=species:S:1:pos:R:3 smiles=CCCCCC config_type=start_9 pbc="F F F"
C        2.49206700      -0.10199000       0.75094300
C        1.96494500       0.47248900      -0.52517300
C        0.62167300      -0.01687800      -0.93759700
C       -0.35539100      -0.22336200       0.18567100
C       -1.74338800       0.02668300      -0.39872700
C       -2.83086700      -0.11777600       0.62565800
H        1.66798400      -0.32405700       1.43953600
H        3.10824600      -1.00224400       0.56358900
H        3.13369100       0.68673600       1.21367800
H        2.68962200       0.19018600      -1.33090900
H        1.94086800       1.57937400      -0.49789600
H        0.69151100      -0.94948200      -1.55262000
H        0.19422300       0.74338400      -1.64030600
H       -0.19937100       0.44368900       1.04624900
H       -0.34970300      -1.30188800       0.45739200
H       -1.69284300       1.05095100      -0.81238600
H       -1.87438500      -0.71166400      -1.22910700
H       -3.50862700       0.76658000       0.66285500
H       -3.48203200      -0.97446000       0.33633600
H       -2.46822300      -0.33590400       1.64281400
20
Properties=species:S:1:pos:R:3 smiles=CCCCCC config_type=start_10 pbc="F F F"
C       -2.37642100       0.70293000       0.01696500
C       -1.97935100      -0.72711100       0.24735900
C       -0.49948600      -0.89528900       0.40489300
C        0.29771600       0.15862200      -0.35316600
C        1.72233500      -0.30318500      -0.49810200
C        2.72090200       0.75981500      -0.06578800
H       -1.96148000       1.39147900       0.77030000
H       -2.12308200       1.01439300      -1.01448200
H       -3.49052900       0.74467500       0.08422200
H       -2.46095400      -1.11145600       1.18143100
H       -2.37665300      -1.32649600      -0.61018500
H       -0.21568700      -1.86851600      -0.06887500
H       -0.17661700      -0.94166200       1.47660400
H        0.21326200       1.15397100       0.11887700
H       -0.14783000       0.18820800      -1.37663800
H        1.88653700      -1.16440400       0.19801500
H        1.95266800      -0.70509500      -1.50968400
H        2.51507400       1.73957600      -0.51672600
H        2.77916400       0.78713400       1.04845200
H        3.72043200       0.40241000      -0.42131700
20
Properties=species:S:1:pos:R:3 smiles=CCCCCC config_type=start_11 pbc="F F F"
C       -2.73380300       0.08267400      -0.65671000
C       -1.61734500       0.51532200       0.27502500
C       -0.66994600      -0.60480100       0.60737600
C        0.56657100      -0.61154400      -0.24267000
C        1.46865100       0.56081000      -0.05333800
C        2.90962400       0.07256900       0.04157100
H       -3.74000400       0.19105100      -0.17913400
H       -2.74255000       0.70267000      -1.58880400
H       -2.58579700      -0.96495700      -1.01471300
H       -2.10728100       0.82330900       1.23259700
H       -1.10959000       1.38653200      -0.18298800
H       -0.39008600      -0.64825900       1.67263600
H       -1.21551000      -1.55488800       0.37693200
H        0.30733800      -0.70250100      -1.31919000
H        1.12218100      -1.54789800       0.01192100
H        1.44694300       1.20748700      -0.96538200
H        1.23230300       1.21112800       0.79436000
H        2.96352100      -0.87177000       0.63875400
H        3.55001100       0.87752300       0.47702800
H        3.34477200      -0.12445800      -0.96570100
20
Properties=species:S:1:pos:R:3 smiles=CCCCCC config_type=start_12 pbc="F F F"
C        3.02503400      -0.07269900       0.44355600
C        1.56889700      -0.22432500       0.83257200
C        0.75240300       0.08061900      -0.40678100
C       -0.64061100       0.51230100      -0.01717100
C       -1.67368200      -0.56674700      -0.27120700
C       -3.02724800       0.13046600      -0.16898100
H        3.28547700      -0.83799000      -0.31873100
H        3.63070000      -0.15499600       1.36216200
H        3.18044900       0.91173500      -0.04929300
H        1.33761800       0.54376000       1.60074900
H        1.36330900      -1.25545100       1.15698400
H        0.75455900      -0.77368200      -1.10058600
H        1.23506700       0.94443500      -0.90109500
H       -0.97520000       1.39329000      -0.62365800
H       -0.69038700       0.77126700       1.05358700
H       -1.61534700      -0.95755200      -1.31498100
H       -1.61545400      -1.39913900       0.44571700
H       -2.93459500       0.79403000       0.72838600
H       -3.85057200      -0.59827300      -0.05816300
H       -3.11041800       0.75894900      -1.07896300
20
Properties=species:S:1:pos:R:3 smiles=CCCCCC config_type=start_13 pbc="F F F"
C       -3.06900000       0.17833800      -0.53370200
C       -1.74923100       0.60110800       0.02594400
C       -0.63767700      -0.38753800      -0.21232200
C        0.66200200       0.33041800       0.12221800
C        1.66104100      -0.55053900       0.80458700
C        3.06801800      -0.20936200       0.33756100
H       -3.01529300      -0.51057500      -1.38548800
H       -3.61581800       1.08455800      -0.89560600
H       -3.69255800      -0.23789900       0.29459300
H       -1.43584900       1.55655100      -0.46804300
H       -1.81813600       0.74570900       1.13374200
H       -0.63550700      -0.81604200      -1.22443400
H       -0.73665700      -1.22445600       0.51369900
H        0.48369100       1.20870200       0.77195800
H        1.05271600       0.70533500      -0.84686500
H        1.63829000      -0.39682600       1.91116500
H        1.48945700      -1.63856200       0.63900700
H        3.62794000       0.38845800       1.07261800
H        3.65109000      -1.14555700       0.17124400
H        3.07148200       0.31817700      -0.63081600
20
Properties=species:S:1:pos:R:3 smiles=CCCCCC config_type=start_14 pbc="F F F"
C       -2.43621600       0.71666200       0.10548600
C       -1.95302600      -0.43231700      -0.73262300
C       -0.59597100      -0.91795900      -0.34556600
C        0.34555900       0.20303900       0.07707600
C        1.71535100      -0.42136100       0.09727800
C        2.82803300       0.55017700       0.34260100
H       -2.87727100       0.37518400       1.07256000
H       -3.20732400       1.25505600      -0.49513500
H       -1.63689400       1.44774100       0.34722100
H       -2.68382400      -1.26359500      -0.57579000
H       -1.98284500      -0.18888800      -1.81339300
H       -0.65671500      -1.64120500       0.50048800
H       -0.12451600      -1.38963900      -1.24337500
H        0.01072300       0.50288000       1.10222500
H        0.25745900       1.06198100      -0.61226500
H        1.83193700      -0.98990000      -0.85817500
H        1.68857600      -1.20666300       0.89134600
H        2.48131100       1.55932400       0.60570000
H        3.45622100       0.16550000       1.18627400
H        3.53943100       0.61398300      -0.52015800
20
Properties=species:S:1:pos:R:3 smiles=CCCCCC config_type=start_15 pbc="F F F"
C        2.62001300       0.62162800      -0.17283300
C        1.83771500      -0.53602600       0.36414600
C        0.54079700      -0.78321900      -0.36039200
C       -0.64381900      -0.28993700       0.46043600
C       -1.90876000      -0.41303600      -0.32288900
C       -2.54695300       0.97283600      -0.35867900
H        3.65754700       0.54152900       0.23982700
H        2.75742600       0.56369000      -1.28224300
H        2.21451100       1.61103800       0.10464400
H        1.62559100      -0.33038000       1.43965400
H        2.50806000      -1.43127300       0.35713900
H        0.38875300      -1.88639300      -0.47356000
H        0.52764600      -0.38030200      -1.38525100
H       -0.69911600      -0.91605700       1.37354100
H       -0.39218100       0.72724800       0.78773500
H       -1.79004500      -0.77778700      -1.35072000
H       -2.67493800      -1.06704200       0.16566000
H       -3.41663900       0.87913900      -1.03068400
H       -1.79429700       1.69285700      -0.69853700
H       -2.81131300       1.20148700       0.68829700
20
Properties=species:S:1:pos:R:3 smiles=CCCCCC config_type=start_16 pbc="F F F"
C       -2.97206000       0.25414900      -0.40368000
C       -1.56784600       0.52497800      -0.86951400
C       -0.52291700       0.13567500       0.15210900
C        0.54699700      -0.64480800      -0.56065500
C        1.81999200      -0.77503000       0.22558900
C        2.78581200       0.36758300      -0.02784000
H       -3.63971800       1.10476300      -0.69335400
H       -3.37535200      -0.64719900      -0.93159500
H       -3.04791500       0.01746100       0.67327100
H       -1.47574700       1.62320400      -1.04271700
H       -1.41547400       0.03169300      -1.85171600
H       -0.11773000       1.02561400       0.69615200
H       -0.94802100      -0.51892200       0.95038700
H        0.16305600      -1.66850300      -0.75108700
H        0.73490200      -0.14309000      -1.52661800
H        1.61890000      -0.91336900       1.31775400
H        2.33719300      -1.69177900      -0.15551800
H        3.83040300      -0.00297600      -0.17390100
H        2.48936700       0.78328900      -1.02397900
H        2.75615900       1.13726800       0.75928600
20
Properties=species:S:1:pos:R:3 smiles=CCCCCC config_type=start_17 pbc="F F F"
C        2.74699000       0.21950000      -0.40360900
C        1.87363600       0.04533700       0.83164300
C        0.59836600      -0.66194700       0.48112000
C       -0.43949400       0.24019800      -0.13331100
C       -1.77261500      -0.46741600       0.07426700
C       -2.91531100       0.48957100       0.22873600
H        3.81669500       0.11064700      -0.10378000
H        2.48429800      -0.50991100      -1.18569500
H        2.64197500       1.28112000      -0.74183400
H        1.72768100       0.98662700       1.37930700
H        2.44007000      -0.63960500       1.51283800
H        0.83719700      -1.52704200      -0.15551300
H        0.16454400      -1.05784500       1.43171600
H       -0.30335200       0.32033000      -1.24117200
H       -0.41415500       1.23614200       0.32770800
H       -1.99954300      -1.15870300      -0.77181500
H       -1.73399800      -1.07881000       1.00905800
H       -3.83318700       0.06603600      -0.24743700
H       -2.73091400       1.48840000      -0.19461700
H       -3.18888300       0.61736900       1.30626500
20
Properties=species:S:1:pos:R:3 smiles=CCCCCC config_type=start_18 pbc="F F F"
C        2.39724700      -0.53992500      -0.91670500
C        1.97840600      -0.11791800       0.48491300
C        0.76323100       0.75916300       0.40678300
C       -0.52656600       0.02443200       0.60452300
C       -1.51653500       0.25235800      -0.52824200
C       -2.87318900      -0.17269500      -0.00681600
H        1.97305600       0.20693200      -1.61427400
H        1.93359800      -1.51740900      -1.10594800
H        3.49531500      -0.55215200      -1.03760200
H        2.85204700       0.43985900       0.89901700
H        1.79368000      -0.97723200       1.14391400
H        0.82666600       1.59559400       1.14710900
H        0.79174600       1.25446200      -0.59659200
H       -0.41345600      -1.06790800       0.69881200
H       -1.04169300       0.40072500       1.52425700
H       -1.51353300       1.29856600      -0.88642200
H       -1.23025200      -0.38970300      -1.39939500
H       -2.84266900      -0.47121900       1.06901300
H       -3.22985400      -1.06620100      -0.55588400
H       -3.61724400       0.64027200      -0.07117400
20
Properties=species:S:1:pos:R:3 smiles=CCCCCC config_type=start_19 pbc="F F F"
C       -2.76260400      -0.23025800       0.46230500
C       -1.53351000       0.61488600       0.21839100
C       -0.64035000       0.06245000      -0.85242900
C        0.53318200      -0.71353200      -0.31501100
C        1.84959700       0.01155000      -0.55907200
C        2.62865900       0.19576200       0.72534500
H       -2.53689400      -1.28097700       0.69401500
H       -3.43841200      -0.16398200      -0.42161500
H       -3.31531500       0.27165500       1.29737300
H       -1.90883800       1.62455500      -0.08755900
H       -0.97869100       0.75782900       1.16582500
H       -0.22375700       0.93953000      -1.40990600
H       -1.18380300      -0.53444300      -1.61583700
H        0.60530900      -1.67891700      -0.87790400
H        0.41376200      -1.01094400       0.74706400
H        1.58610200       0.99970700      -0.99125300
H        2.47092100      -0.50174000      -1.31637200
H        2.17258100      -0.50241800       1.46713200
H        3.69768100      -0.11646000       0.61187500
H        2.56438300       1.25574700       1.05763300
20
Properties=species:S:1:pos:R:3 smiles=CCCCCC config_type=start_20 pbc="F F F"
C       -2.90623000       0.45536500       0.15340100
C       -1.72451100      -0.41690000      -0.14078000
C       -0.39548000       0.30299300       0.07113400
C        0.61927400      -0.79034300       0.17896600
C        2.00408600      -0.33527300       0.51201200
C        2.57329800       0.57006600      -0.56668100
H       -2.56088900       1.51676800       0.18065400
H       -3.68908500       0.39331300      -0.61865200
H       -3.34547700       0.13486600       1.12758900
H       -1.76206700      -1.33705400       0.49320900
H       -1.81498500      -0.73805000      -1.20524800
H       -0.25501700       0.93345300      -0.83916600
H       -0.51435000       0.92394600       0.96714600
H        0.28331400      -1.51020400       0.94241900
H        0.64859300      -1.28322800      -0.82600000
H        2.10099400       0.08682300       1.52087700
H        2.64693300      -1.25237900       0.50304000
H        3.62766100       0.79535100      -0.35329300
H        2.45659300       0.02920100      -1.53477200
H        2.00734500       1.52128800      -0.56585600
20
Properties=species:S:1:pos:R:3 smiles=CCCCCC config_type=start_21 pbc="F F F"
C       -2.69704100       0.50019300       0.54382200
C       -1.53895200      -0.44870800       0.59527700
C       -0.48681800      -0.05044000      -0.41086900
C        0.73384500      -0.91959500      -0.32806900
C        1.78724100      -0.37564900       0.60288400
C        2.42812600       0.88464900       0.10496500
H       -3.52116300       0.04384100      -0.05268700
H       -3.12014000       0.72832200       1.55505100
H       -2.44651700       1.48666800       0.08625900
H       -1.88913400      -1.46824600       0.29760600
H       -1.15740700      -0.50893300       1.62803400
H       -0.27019000       1.03291700      -0.34960400
H       -0.92453700      -0.20873700      -1.42871500
H        0.44112700      -1.92421000       0.06988300
H        1.16153200      -1.11156300      -1.34496400
H        2.57031000      -1.16479900       0.68502100
H        1.30280700      -0.21256100       1.58649700
H        1.93683900       1.15926300      -0.86126600
H        2.16536300       1.71505000       0.80349700
H        3.52470700       0.84253700       0.03696500
20
Properties=species:S:1:pos:R:3 smiles=CCCCCC config_type=start_22 pbc="F F F"
C        2.79584700       0.35452800      -0.67912200
C        1.85101000       0.06541300       0.46502900
C        0.66178800      -0.76828700       0.01341000
C       -0.53906500       0.13364200       0.03726700
C       -1.83979700      -0.59733400       0.21432800
C       -2.94020600       0.42153100      -0.06117400
H        3.30562400      -0.54291100      -1.05421700
H        3.57923600       1.03684500      -0.27468800
H        2.31102800       0.91180600      -1.50711500
H        2.42430400      -0.44005400       1.25504300
H        1.53206300       1.04604600       0.89205300
H        0.78598200      -1.14589100      -1.02457100
H        0.49838800      -1.61897800       0.69029300
H       -0.53187300       0.74276800      -0.89217700
H       -0.42431900       0.80123400       0.92860700
H       -1.97140400      -1.43925200      -0.50333700
H       -1.93236600      -0.93589900       1.25771100
H       -2.69228400       1.37046400       0.47964900
H       -2.98093200       0.62140200      -1.15164500
H       -3.89302400      -0.01707500       0.27328000
20
Properties=species:S:1:pos:R:3 smiles=CCCCCC config_type=start_23 pbc="F F F"
C       -2.21140800      -0.08221700       0.96560100
C       -1.77332000       0.18599000      -0.45393000
C       -0.67569400      -0.70971100      -0.92655800
C        0.69188600      -0.09736300      -0.89701400
C        1.14625300       0.29741200       0.48667100
C        2.66418800       0.43077300       0.42242800
H       -1.40697200      -0.44493000       1.61866500
H       -2.66039000       0.80556200       1.44906200
H       -3.00145700      -0.87605400       0.99727500
H       -1.56658200       1.26632600      -0.56020500
H       -2.66788000      -0.02748400      -1.09364300
H       -0.85058000      -1.07707400      -1.95431200
H       -0.65833800      -1.59589200      -0.25289000
H        0.83996500       0.72497800      -1.60557500
H        1.39753700      -0.90556400      -1.22166300
H        0.74396400       1.26179600       0.82487800
H        0.94615600      -0.55280000       1.15264700
H        3.11721100       0.56854700       1.41577700
H        2.86912700       1.29344900      -0.24689500
H        3.05633700      -0.46574300      -0.12031800
20
Properties=species:S:1:pos:R:3 smiles=CCCCCC config_type=start_24 pbc="F F F"
C        2.42270800       0.87806300       0.35265200
C        2.00305500      -0.28512300      -0.54040100
C        0.68974200      -0.86259600      -0.10649800
C       -0.51086500      -0.09600600      -0.57417300
C       -1.56702600      -0.25035300       0.51236400
C       -2.88746900       0.34224100       0.10425900
H        1.77752100       1.75659700       0.22689000
H        2.42058800       0.47486900       1.39077100
H        3.45021200       1.18825800       0.11264900
H        2.04094900      -0.00824100      -1.61128500
H        2.76716700      -1.08150100      -0.34446300
H        0.66308200      -1.91519800      -0.46554900
H        0.71210700      -0.91043600       1.00778800
H       -0.96886700      -0.55691400      -1.48672400
H       -0.31590400       0.96053500      -0.80737200
H       -1.72070400      -1.32867700       0.67440900
H       -1.25434700       0.18720400       1.46842300
H       -2.82707100       1.41821100      -0.14479400
H       -3.34015000      -0.17894400      -0.76780900
H       -3.55472600       0.26800900       0.99886200
