17
Properties=species:S:1:pos:R:3 smiles=C(C)(C)(C)C config_type=start_0 pbc="F F F"
C       -0.00558100       0.02333700       0.00016700
C        0.50764500      -1.15180200      -0.82628000
C       -1.39056300       0.37901400      -0.45180800
C        1.00510800       1.12068600      -0.15126700
C       -0.11531600      -0.36547600       1.47058700
H        0.09248100      -1.00404600      -1.85564800
H        0.19546800      -2.12576700      -0.40256000
H        1.61810300      -1.09102000      -0.96027200
H       -2.14869500       0.32814600       0.37182400
H       -1.74911000      -0.38547300      -1.18831700
H       -1.48142100       1.38808800      -0.88096900
H        0.58873800       2.09619500      -0.42729800
H        1.78180300       0.89591500      -0.92743000
H        1.59953600       1.22008500       0.79303300
H       -0.30113200      -1.45545700       1.49555100
H        0.78422400      -0.04953700       2.01475600
H       -0.98128800       0.17711500       1.92593100
17
Properties=species:S:1:pos:R:3 smiles=C(C)(C)(C)C config_type=start_1 pbc="F F F"
C       -0.02566000      -0.01389100       0.00486600
C       -0.73970400      -0.17218400      -1.31222000
C       -0.27679700       1.37878000       0.53066600
C        1.48230700      -0.12736500      -0.13749200
C       -0.47728200      -1.09581700       0.94545800
H       -1.54928400      -0.93973700      -1.22680100
H       -1.22449200       0.76341900      -1.66435900
H        0.00626200      -0.48188400      -2.06288400
H       -0.32927800       2.03079400      -0.37872200
H       -1.22876900       1.49482800       1.06121000
H        0.58928300       1.78046400       1.11584500
H        1.94674300       0.85266800      -0.41089800
H        1.87782900      -0.33878600       0.88867300
H        1.79326300      -0.88401100      -0.86621000
H       -1.08185700      -1.86543200       0.40038100
H        0.39023200      -1.66543000       1.36357800
H       -1.15279600      -0.71641800       1.74890900
17
Properties=species:S:1:pos:R:3 smiles=C(C)(C)(C)C config_type=start_2 pbc="F F F"
C        0.00576700      -0.03562800       0.01156300
C        0.10378700       1.26711600       0.79635600
C        1.32437200      -0.19425000      -0.71845800
C       -1.13932300       0.11928600      -0.95626000
C       -0.24916000      -1.19619100       0.93894600
H       -0.91359400       1.73146900       0.84085500
H        0.45336300       0.98042600       1.81928600
H        0.82592900       1.94156700       0.28196600
H        2.14694000       0.35546100      -0.23344900
H        1.53934100      -1.26982700      -0.78784700
H        1.16799500       0.26828900      -1.71427900
H       -2.03387300      -0.46681000      -0.68310100
H       -1.46664700       1.18502800      -1.05088800
H       -0.76913400      -0.26298400      -1.93163700
H       -1.08044700      -0.90751500       1.60528400
H        0.68001100      -1.46408200       1.45769500
H       -0.59532800      -2.05135600       0.32396600
17
Properties=species:S:1:pos:R:3 smiles=C(C)(C)(C)C config_type=start_3 pbc="F F F"
C       -0.03999400      -0.01789500      -0.04002900
C        0.25586100      -0.16326900       1.43242400
C        0.34656100       1.39143300      -0.46857600
C       -1.50496300      -0.23570300      -0.26854900
C        0.84208400      -0.97639500      -0.77409000
H       -0.65785100      -0.45165400       1.99380200
H        0.99978200      -0.97336000       1.64129700
H        0.72144100       0.76657700       1.83394200
H        1.45594400       1.42617000      -0.38143600
H       -0.03939800       2.12071100       0.27435000
H        0.00282600       1.62605100      -1.49426400
H       -1.79199600      -0.14693400      -1.32503400
H       -1.84162800      -1.19532500       0.14142200
H       -2.05927800       0.55348500       0.27637800
H        1.18767800      -1.79197100      -0.08964100
H        0.37168900      -1.47254400      -1.63168400
H        1.75124200      -0.45937700      -1.12031100
17
Properties=species:S:1:pos:R:3 smiles=C(C)(C)(C)C config_type=start_4 pbc="F F F"
C       -0.00201100      -0.01710600      -0.00973900
C       -0.77244200      -0.41456300      -1.23118900
C        0.10606500      -1.22212300       0.89146900
C       -0.73742100       1.13914200       0.63165900
C        1.38919500       0.47665300      -0.30851200
H       -1.50705100      -1.20022300      -0.92970400
H       -0.07646400      -0.74094800      -2.01178300
H       -1.38542200       0.41703800      -1.65773900
H        0.03423500      -0.88974200       1.93917300
H       -0.69186800      -1.96417700       0.63468100
H        1.09201400      -1.71043400       0.67716400
H       -0.36302100       2.07871000       0.15088900
H       -0.49802500       1.10890000       1.70895700
H       -1.82610900       1.11737200       0.43655600
H        1.36214900       1.44681200      -0.81554600
H        2.01705300      -0.28600600      -0.79729500
H        1.85912300       0.66069500       0.69095900
17
Properties=species:S:1:pos:R:3 smiles=C(C)(C)(C)C config_type=start_5 pbc="F F F"
C        0.06351700      -0.01282200      -0.03909400
C        0.44994800       1.21709800      -0.81182300
C       -0.22018900       0.36601100       1.40997200
C       -1.26677600      -0.52431300      -0.58070200
C        1.11552300      -1.08854800      -0.05941800
H        0.01153100       2.09354700      -0.27818100
H       -0.00592300       1.20211500      -1.82900700
H        1.53612200       1.37354900      -0.87086000
H       -1.07030500       1.08815200       1.37108700
H       -0.58417500      -0.56520600       1.89448500
H        0.65183400       0.79977300       1.91424500
H       -1.86746800       0.37546100      -0.83621500
H       -1.83912200      -1.03644700       0.23267100
H       -1.13590900      -1.22599100      -1.41489900
H        0.63902900      -2.09464700       0.05437600
H        1.77455400      -0.93483900       0.82282100
H        1.74780700      -1.03289400      -0.97945700
17
Properties=species:S:1:pos:R:3 smiles=C(C)(C)(C)C config_type=start_6 pbc="F F F"
C        0.03658300      -0.03075300       0.03720700
C       -0.88283900       0.40956400       1.15294800
C        1.07545400      -1.01736900       0.45483100
C        0.71808300       1.20304300      -0.53802400
C       -0.85504500      -0.55211200      -1.08370900
H       -0.52807200      -0.03504800       2.09173000
H       -0.94129900       1.52731400       1.18620000
H       -1.93552800       0.06464600       0.98732200
H        0.69728300      -2.03188300       0.17616300
H        2.04697600      -0.91920400      -0.05138900
H        1.26036600      -1.02426800       1.55807900
H        1.41258400       1.55917200       0.24697100
H        1.24167300       0.87735200      -1.44396600
H       -0.03623800       1.98836200      -0.70360400
H       -1.13208800       0.25435800      -1.79156100
H       -0.36993000      -1.36359700      -1.65292900
H       -1.80796400      -0.90957800      -0.62626900
17
Properties=species:S:1:pos:R:3 smiles=C(C)(C)(C)C config_type=start_7 pbc="F F F"
C        0.00735500       0.04987400       0.01506600
C       -0.34505600       1.45203200      -0.36430500
C       -1.22396700      -0.84004200       0.12361400
C        0.74725000      -0.03814300       1.32985300
C        0.89879600      -0.54387500      -1.06815300
H        0.12786500       2.23293900       0.24275700
H       -0.11290100       1.65837600      -1.43820300
H       -1.45630600       1.53562700      -0.28509600
H       -1.12711700      -1.72629700      -0.52967400
H       -1.33765000      -1.22751700       1.15195700
H       -2.11213900      -0.21671000      -0.10072900
H        0.98276600      -1.10117300       1.50609300
H        1.65820600       0.57070500       1.36580400
H        0.00042900       0.23307700       2.11962600
H        1.96591100      -0.40678500      -0.78496600
H        0.65601100      -0.02182100      -2.02746500
H        0.67054700      -1.61026600      -1.25617900
17
Properties=species:S:1:pos:R:3 smiles=C(C)(C)(C)C config_type=start_8 pbc="F F F"
C       -0.00906000       0.03313000      -0.06397600
C       -0.06906000      -1.17441200       0.86446700
C        1.42955000       0.19807600      -0.46430400
C       -0.42392900       1.22988300       0.76644600
C       -0.93528900      -0.17982700      -1.22663700
H       -0.62663200      -1.98738700       0.34946800
H        0.92796500      -1.57898500       1.09098700
H       -0.57109000      -0.95106600       1.81580600
H        2.01948800       0.25452900       0.48534700
H        1.77325000      -0.71044900      -0.99260300
H        1.61345800       1.12599600      -1.03909600
H        0.42706100       1.43331500       1.46192300
H       -0.63142500       2.11534100       0.12661500
H       -1.27541200       0.96085600       1.42244000
H       -1.83586200       0.48433300      -1.18480300
H       -0.47011100      -0.03107800      -2.20941700
H       -1.34290200      -1.22225400      -1.20266500
17
Properties=species:S:1:pos:R:3 smiles=C(C)(C)(C)C config_type=start_9 pbc="F F F"
C        0.03312200       0.02299300       0.02306600
C       -1.09074800       1.01803900      -0.00429200
C        0.13013500      -0.71663000       1.34646500
C       -0.29036900      -1.05069800      -1.00846500
C        1.31231100       0.73801500      -0.29672100
H       -1.35500900       1.43225400       0.98003200
H       -0.79193800       1.85688300      -0.68017100
H       -2.01326600       0.57365900      -0.44993200
H        0.82311000      -1.57655200       1.16357700
H        0.56325700      -0.11006200       2.14859100
H       -0.84860500      -1.17157000       1.58834300
H       -1.12539300      -1.64200700      -0.55350700
H        0.57098600      -1.70546500      -1.19178700
H       -0.71533000      -0.58618300      -1.91260800
H        1.27097800       1.73237800       0.21234400
H        2.22003400       0.21249000       0.02709700
H        1.30672600       0.97245700      -1.39203000
17
Properties=species:S:1:pos:R:3 smiles=C(C)(C)(C)C config_type=start_10 pbc="F F F"
C       -0.03140300      -0.03872000      -0.02617500
C        0.76860500      -1.08375300       0.74210300
C       -1.00205200      -0.65042400      -0.99077900
C       -0.80422400       0.85974800       0.90662400
C        1.00911400       0.83651200      -0.71404500
H        0.20371500      -1.47644800       1.59797700
H        1.67435400      -0.56716600       1.14946800
H        1.11266100      -1.84928700       0.03254300
H       -2.04035400      -0.66679400      -0.57628100
H       -0.67779000      -1.68651400      -1.24519600
H       -1.03326500      -0.01867400      -1.90494700
H       -0.56082200       1.93611300       0.77503200
H       -0.57677900       0.59425200       1.96462400
H       -1.90642600       0.77052000       0.75909500
H        0.56854400       1.49462100      -1.47702700
H        1.50750200       1.39547600       0.11911900
H        1.78862200       0.15053800      -1.11213600
17
Properties=species:S:1:pos:R:3 smiles=C(C)(C)(C)C config_type=start_11 pbc="F F F"
C       -0.04413500       0.02381100      -0.05084800
C       -1.27888700       0.05882600       0.79710900
C        1.15731700      -0.08469400       0.88250700
C       -0.05529900      -1.21765500      -0.89182000
C        0.15014600       1.28502800      -0.83769400
H       -1.63963700      -0.99409000       0.91697200
H       -1.01776200       0.42697600       1.81718300
H       -2.10552700       0.63685000       0.34741300
H        2.03323700      -0.24250500       0.20654100
H        1.23917800       0.89366500       1.38409900
H        0.96875200      -0.92919100       1.55956900
H       -0.87039600      -1.25544400      -1.62069900
H        0.95711200      -1.36639400      -1.32589300
H       -0.21439300      -2.07662800      -0.19688800
H        0.07463500       2.13318600      -0.11197100
H       -0.56525800       1.39791000      -1.68365600
H        1.21091500       1.31034900      -1.19192600
17
Properties=species:S:1:pos:R:3 smiles=C(C)(C)(C)C config_type=start_12 pbc="F F F"
C        0.03243500       0.02023800       0.03709300
C        1.43054300      -0.48645700       0.22813600
C        0.00972300       1.51507800      -0.13196100
C       -0.49718300      -0.68269900      -1.20888300
C       -0.91117300      -0.35591600       1.14167100
H        2.05745100      -0.02589700      -0.57525400
H        1.46168700      -1.57844500       0.01587700
H        1.83659600      -0.28308900       1.22922900
H        0.71929100       2.01075500       0.54857000
H        0.27385700       1.82255700      -1.15364200
H       -0.99706800       1.92341500       0.10598400
H       -1.54441000      -0.38407700      -1.34476100
H        0.17169900      -0.39992100      -2.04550500
H       -0.44515200      -1.77218400      -0.96497200
H       -1.88636500       0.13944600       0.90330600
H       -1.10871100      -1.43874300       1.07556100
H       -0.60322200      -0.02406000       2.13955200
17
Properties=species:S:1:pos:R:3 smiles=C(C)(C)(C)C config_type=start_13 pbc="F F F"
C        0.00554300       0.02534700      -0.01208600
C        0.27500900       1.27636500      -0.79269300
C       -0.31608700       0.35579000       1.43968400
C        1.20778100      -0.87779800      -0.02310300
C       -1.13340100      -0.76508300      -0.64048200
H        1.35923200       1.43055200      -1.02442400
H       -0.34293500       1.25797800      -1.72610900
H       -0.12706600       2.13258500      -0.20267800
H        0.63467400       0.38919100       2.02717200
H       -1.02891000      -0.38260600       1.84582500
H       -0.77686300       1.34691200       1.55202400
H        0.86605300      -1.90737200       0.18335100
H        1.68769900      -0.88865100      -1.03063900
H        1.93810200      -0.49548900       0.70114200
H       -1.58678900      -0.18821500      -1.45302300
H       -0.79762500      -1.74119200      -1.01871100
H       -1.86441600      -0.96831500       0.17475000
17
Properties=species:S:1:pos:R:3 smiles=C(C)(C)(C)C config_type=start_14 pbc="F F F"
C        0.00106600      -0.03694800      -0.04293900
C       -0.92518800       0.58693500       0.99164200
C        1.18019500      -0.72031900       0.63791300
C       -0.82701000      -0.97773800      -0.85319400
C        0.56635900       1.11983800      -0.83299400
H       -0.38429500       0.61199600       1.96147400
H       -1.26852000       1.59871600       0.69406500
H       -1.84279400      -0.03471200       1.13788900
H        1.38933100      -1.69333400       0.17238800
H        0.93954100      -0.78393700       1.72384700
H        2.10631600      -0.09509900       0.57163600
H       -0.59439200      -1.00314500      -1.92650200
H       -1.92447400      -0.76234600      -0.79365500
H       -0.70783700      -2.01435700      -0.44845700
H        1.18959800       1.69930800      -0.10399300
H        1.30499100       0.75505200      -1.58809900
H       -0.20288700       1.75009000      -1.30101800
17
Properties=species:S:1:pos:R:3 smiles=C(C)(C)(C)C config_type=start_15 pbc="F F F"
C        0.02439400      -0.01486400       0.00206400
C       -0.46054000      -1.22775400       0.74682500
C        1.42505700      -0.24706300      -0.50910400
C       -0.96537800       0.22115000      -1.13172900
C        0.03233200       1.24098900       0.83103500
H       -0.69970400      -1.04246400       1.80331700
H        0.31297900      -2.03455600       0.68341100
H       -1.37301200      -1.68696200       0.29317400
H        1.44887800      -1.09954700      -1.20002300
H        2.06444300      -0.37651000       0.39010200
H        1.74352400       0.71654100      -0.97946600
H       -1.93131100       0.47294700      -0.62425000
H       -0.63756800       0.99695500      -1.83364100
H       -1.11359300      -0.75879200      -1.60350700
H       -0.67991600       2.01610800       0.44791400
H       -0.21896800       1.07110200       1.88828900
H        1.02838100       1.75272100       0.79558900
17
Properties=species:S:1:pos:R:3 smiles=C(C)(C)(C)C config_type=start_16 pbc="F F F"
C        0.00291300       0.05095900      -0.01253700
C       -0.57837300      -0.17173000       1.37808500
C        0.00684500      -1.33396200      -0.65202200
C        1.44005800       0.51836600       0.06456200
C       -0.84920100       1.02346400      -0.77637100
H       -1.50339100      -0.76848600       1.20767500
H       -0.86218100       0.75485100       1.88414000
H        0.10503500      -0.82533600       1.93751900
H        0.60406500      -1.33063800      -1.57168800
H        0.47258500      -2.01070600       0.10135000
H       -1.04241300      -1.62401900      -0.76987800
H        2.00633200       0.03633900      -0.76099700
H        1.49812300       1.61669800      -0.08307900
H        1.92042000       0.25289100       1.01523100
H       -1.26860800       1.80871200      -0.09809100
H       -0.29876200       1.54571000      -1.59338100
H       -1.65344700       0.45688800      -1.27051700
17
Properties=species:S:1:pos:R:3 smiles=C(C)(C)(C)C config_type=start_17 pbc="F F F"
C       -0.03053500      -0.02180000      -0.03709300
C        0.71299200       0.09204200       1.28997200
C       -0.95568600      -1.20272200      -0.07372900
C       -0.80219400       1.27293800      -0.16865800
C        1.05025200      -0.16263500      -1.08850700
H        1.57068400      -0.62558600       1.33332600
H        0.02550800      -0.03777500       2.14697100
H        1.18358000       1.10594900       1.25930500
H       -0.69975700      -1.88639900      -0.92102800
H       -2.01825400      -0.87410500      -0.19902700
H       -0.89517700      -1.78541800       0.87959400
H       -1.14555600       1.38326300      -1.20588800
H       -0.24425900       2.14400800       0.21859400
H       -1.70716200       1.17030500       0.48273300
H        1.88444600       0.51464600      -0.78341600
H        1.39356100      -1.21125000      -1.04846500
H        0.67755600       0.12454000      -2.08468600
17
Properties=species:S:1:pos:R:3 smiles=C(C)(C)(C)C config_type=start_18 pbc="F F F"
C        0.00549800       0.01956000      -0.03294900
C        0.90991400      -0.39912400       1.12035300
C       -0.88175300       1.15478600       0.43553100
C       -0.90113500      -1.13955800      -0.40786300
C        0.89696100       0.41021700      -1.17578800
H        0.56278700       0.05893600       2.07790500
H        1.95216600      -0.02870100       0.95694500
H        0.89061200      -1.49967000       1.16006400
H       -0.41054600       1.73034000       1.27350600
H       -1.79997300       0.70239400       0.88765300
H       -1.23654200       1.79629800      -0.38329600
H       -0.98189800      -1.78368200       0.50375700
H       -1.92710000      -0.78741700      -0.65828700
H       -0.53968500      -1.70430800      -1.27572900
H        1.96918200       0.49939000      -0.88795000
H        0.62205400       1.37054900      -1.64731500
H        0.86945700      -0.40001000      -1.94653700
17
Properties=species:S:1:pos:R:3 smiles=C(C)(C)(C)C config_type=start_19 pbc="F F F"
C        0.00254200      -0.00473400       0.00463300
C        1.27706700      -0.82079400      -0.10238000
C        0.43895200       1.45118400       0.11593500
C       -0.83296500      -0.41996600       1.20156000
C       -0.88305400      -0.19065400      -1.21920500
H        2.15185300      -0.20048300      -0.41025900
H        1.19299700      -1.62052000      -0.87897300
H        1.56409000      -1.26891800       0.88171700
H        1.48805100       1.54749600       0.45446500
H       -0.23547300       1.91246200       0.86892400
H        0.32656300       1.90263100      -0.88669800
H       -0.81666200       0.40286100       1.93721500
H       -0.44257900      -1.37592500       1.57868400
H       -1.89836700      -0.59409800       0.93694100
H       -1.31520800       0.80134000      -1.45586000
H       -0.29165000      -0.63404600      -2.03250200
H       -1.72615700      -0.88783700      -0.99419800
17
Properties=species:S:1:pos:R:3 smiles=C(C)(C)(C)C config_type=start_20 pbc="F F F"
C       -0.01702700       0.04258700       0.03464900
C       -1.04653000      -0.97965900      -0.43089300
C        0.10218800      -0.07219100       1.52101100
C        1.28262000      -0.33316200      -0.62359200
C       -0.44449000       1.38468100      -0.45887500
H       -0.75402700      -1.93519400       0.03073700
H       -0.90817500      -1.03492300      -1.54104600
H       -2.04024300      -0.61294900      -0.13740500
H        0.18996200       0.93270800       1.97803000
H        1.03176300      -0.64743900       1.77003200
H       -0.71981900      -0.68455000       1.96384200
H        2.07790500      -0.40763600       0.15767800
H        1.24503200      -1.34792100      -1.09180200
H        1.62324100       0.44049600      -1.33208400
H       -0.78629200       2.06698400       0.35541200
H        0.40449200       1.90089000      -0.95597800
H       -1.24059900       1.28727700      -1.23971500
17
Properties=species:S:1:pos:R:3 smiles=C(C)(C)(C)C config_type=start_21 pbc="F F F"
C        0.06613900      -0.02298000       0.02277500
C       -0.76738200      -1.14588600       0.62884600
C       -0.69641600       0.39288800      -1.23213700
C        1.45514800      -0.49647100      -0.27570800
C        0.04183200       1.22013900       0.90305900
H       -1.71805000      -0.66621100       0.96739800
H       -0.24466600      -1.69281800       1.41959600
H       -0.97539200      -1.84697900      -0.20987200
H       -1.74978600       0.53965100      -0.88947600
H       -0.60355700      -0.36680600      -2.02294800
H       -0.35062500       1.40793700      -1.55310500
H        2.05787800      -0.30894700       0.65015700
H        1.92552400      -0.00594200      -1.14167100
H        1.50093300      -1.60621600      -0.41085300
H        0.60792400       1.99192600       0.33424600
H       -1.01875600       1.55254500       0.91159500
H        0.46925400       1.05417000       1.89809900
17
Properties=species:S:1:pos:R:3 smiles=C(C)(C)(C)C config_type=start_22 pbc="F F F"
C       -0.00648200       0.04245600      -0.01953000
C        0.55887400      -1.36413400      -0.18894400
C       -0.75302200       0.05870400       1.30696000
C       -0.99980800       0.31030500      -1.11175200
C        1.17357300       0.97347500      -0.02955300
H        0.71989300      -1.49417500      -1.26683200
H       -0.10024400      -2.10831900       0.27802900
H        1.55214500      -1.40027300       0.31161900
H       -0.45733000      -0.81711000       1.93544200
H       -1.85902100       0.04693500       1.15842600
H       -0.52457000       1.03097400       1.80455500
H       -1.29172800       1.37138000      -1.16633200
H       -1.93231900      -0.24916300      -0.84948700
H       -0.65555800      -0.04138300      -2.11413100
H        1.02275600       1.89396800      -0.60533100
H        1.46176800       1.25018000       1.01631400
H        2.09107400       0.49617800      -0.45945200
17
Properties=species:S:1:pos:R:3 smiles=C(C)(C)(C)C config_type=start_23 pbc="F F F"
C        0.02526900      -0.01020000       0.03193900
C       -0.49784400       1.22006100      -0.70075700
C       -1.11061800      -0.99255200       0.10785500
C        1.12566400      -0.69943100      -0.74348700
C        0.49121600       0.47702400       1.37284200
H        0.31342200       1.99050400      -0.73085800
H       -1.28789200       1.64593900      -0.03765700
H       -0.87886800       0.97957700      -1.70764900
H       -0.80444700      -1.92306700       0.64027800
H       -1.29401300      -1.32405500      -0.94659900
H       -2.05369900      -0.56447100       0.47604200
H        1.21631000      -1.72871100      -0.31263700
H        0.75679700      -0.86669300      -1.78363400
H        2.08356600      -0.16628000      -0.70247400
H        1.23820400       1.28498500       1.17118000
H        1.02201500      -0.28123300       1.97256300
H       -0.34508200       0.95860200       1.89305600
17
Properties=species:S:1:pos:R:3 smiles=C(C)(C)(C)C config_type=start_24 pbc="F F F"
C        0.00343100       0.03635400      -0.02807400
C        1.02615900       1.08726700       0.29554500
C       -0.72121800      -0.47277200       1.20892200
C       -1.06324100       0.55083600      -0.97037200
C        0.74398500      -1.15369700      -0.60065400
H        0.97700800       1.95475800      -0.40876300
H        0.89621700       1.48750500       1.32706800
H        2.07380400       0.69218700       0.27594700
H       -0.84603800       0.39450700       1.87061500
H       -1.70147900      -0.91164600       0.90445200
H       -0.12139500      -1.29625500       1.66680600
H       -1.62508700       1.34255100      -0.42376700
H       -0.63983600       0.91836900      -1.91292000
H       -1.78957300      -0.28481400      -1.10127400
H        0.02415300      -1.95841800      -0.87857700
H        1.37776200      -0.84213500      -1.45399000
H        1.38534900      -1.54459800       0.22903500
