14
Properties=species:S:1:pos:R:3 smiles=CCCC pbc="F F F"
C       -1.72416400       0.19663300       0.02774900
C       -0.51122500      -0.37196700      -0.67956100
C        0.66251700      -0.57359600       0.23271000
C        1.61731900       0.57952000       0.26296800
H       -1.39383800       0.74090000       0.93143700
H       -2.41562000      -0.60755100       0.38418000
H       -2.34407200       0.83344400      -0.65320700
H       -0.28909100       0.21040100      -1.58550600
H       -0.82072000      -1.39194200      -1.02331100
H        0.25425200      -0.68394300       1.26663700
H        1.21409300      -1.51111800      -0.00844400
H        2.61353800       0.18147400       0.58032600
H        1.33358400       1.36571700       1.00564500
H        1.80342800       1.03202800      -0.74162400
14
Properties=species:S:1:pos:R:3 smiles=CCCC pbc="F F F"
C       -1.76445300       0.21206600      -0.09284400
C       -0.57966000      -0.47174900       0.56222200
C        0.69495700      -0.25657000      -0.19475800
C        1.72470300       0.39441700       0.71421000
H       -2.63375500       0.01047200       0.57931200
H       -1.65121300       1.30320500      -0.16465600
H       -2.00468900      -0.26895700      -1.06110900
H       -0.49565200      -0.05968500       1.57534300
H       -0.86819700      -1.54027000       0.66544200
H        1.11774100      -1.26494500      -0.43311400
H        0.52941300       0.29537400      -1.12869100
H        1.23968200       1.01277000       1.51070600
H        2.30874800      -0.38209400       1.27097900
H        2.38237600       1.01596600       0.07794400
14
Properties=species:S:1:pos:R:3 smiles=CCCC pbc="F F F"
C        1.60677300       0.45432700       0.25926500
C        0.67581700      -0.56808800      -0.27462600
C       -0.66510900      -0.06830800      -0.71226800
C       -1.59695800       0.12426300       0.45662700
H        1.48995000       0.55540400       1.36475900
H        2.65187200       0.09428800       0.08259700
H        1.51758400       1.46273100      -0.15609400
H        0.50022600      -1.32962200       0.51909100
H        1.14301200      -1.08856000      -1.14673200
H       -0.62915900       0.80217800      -1.39316500
H       -1.11740500      -0.89627500      -1.31826000
H       -1.72547300       1.17903100       0.75380200
H       -2.63154900      -0.24599000       0.24916300
H       -1.21957900      -0.47538000       1.31584100
14
Properties=species:S:1:pos:R:3 smiles=CCCC pbc="F F F"
C       -1.85191500       0.08921300       0.32215700
C       -0.46631800      -0.08867600       0.93099700
C        0.46105200      -0.35580000      -0.21777400
C        1.80804400       0.29185600      -0.07438100
H       -1.99455900      -0.78310500      -0.35311800
H       -2.62550100       0.15012100       1.10201100
H       -1.82351200       1.04865700      -0.23677500
H       -0.46135800      -0.95103800       1.64419800
H       -0.22305100       0.84989600       1.48838400
H        0.02938800      -0.07380900      -1.20749500
H        0.62662300      -1.45851600      -0.27554200
H        1.75856100       1.39084200      -0.07228700
H        2.36372700      -0.09102200       0.79772200
H        2.39882000      -0.01862100      -0.97312700
14
Properties=species:S:1:pos:R:3 smiles=CCCC pbc="F F F"
C       -1.86010500       0.19956600       0.10134600
C       -0.51332500       0.03943200      -0.54219000
C        0.52094700      -0.55790900       0.36525000
C        1.83811600       0.16026000       0.09938800
H       -2.22120300       1.25918400       0.07950400
H       -1.86008100      -0.15551400       1.13933700
H       -2.61713200      -0.35537600      -0.50883900
H       -0.18492500       1.05627600      -0.87549200
H       -0.55022200      -0.59922300      -1.45974300
H        0.22614700      -0.50655400       1.43055100
H        0.69651300      -1.64391000       0.15818500
H        1.71844800       0.95901100      -0.67424700
H        2.59367900      -0.53769800      -0.32117400
H        2.21314400       0.68245500       1.00812500
14
Properties=species:S:1:pos:R:3 smiles=CCCC pbc="F F F"
C       -1.65134500      -0.41157200      -0.28189400
C       -0.61713600       0.70688500      -0.24861500
C        0.53962700       0.34760700       0.63830400
C        1.66515700      -0.33906000      -0.07873600
H       -1.71038800      -0.76455700      -1.33044100
H       -2.64515400      -0.06743300       0.09587000
H       -1.27247700      -1.24629100       0.36077700
H       -1.12385200       1.58471900       0.22547000
H       -0.26086400       0.95089800      -1.27989100
H        0.95204200       1.22370200       1.18637200
H        0.15145200      -0.35805200       1.41548800
H        2.04743700      -1.18260100       0.55142200
H        2.54972900       0.33627100      -0.20376100
H        1.37577100      -0.78051600      -1.05036600
14
Properties=species:S:1:pos:R:3 smiles=CCCC pbc="F F F"
C        1.62627800       0.46272100      -0.23885300
C        0.53142600      -0.52527900      -0.51604800
C       -0.46239600      -0.50553500       0.63492300
C       -1.68411800       0.23581400       0.15970500
H        2.64010400       0.03444700      -0.34620900
H        1.56930500       0.87594300       0.79804200
H        1.55710400       1.35274000      -0.90908500
H        0.87715900      -1.55592700      -0.67524100
H        0.04038000      -0.21256100      -1.47208100
H       -0.06085300       0.04273500       1.51963000
H       -0.68559000      -1.54317200       0.96731100
H       -2.46678300      -0.48917800      -0.09586300
H       -2.04851200       0.97724200       0.91322200
H       -1.43350500       0.85001000      -0.73945200
14
Properties=species:S:1:pos:R:3 smiles=CCCC pbc="F F F"
C       -1.57971600      -0.21206600       0.28818400
C       -0.58857700       0.78807900      -0.22932600
C        0.70642900       0.17834300      -0.68329500
C        1.44044600      -0.56776000       0.39528100
H       -1.30839100      -1.22296200      -0.09595100
H       -2.61348800       0.05124600      -0.00651400
H       -1.51832500      -0.19703500       1.39879700
H       -0.34013000       1.55337400       0.54848800
H       -0.97490300       1.36113700      -1.10958300
H        0.51707600      -0.51734300      -1.51176800
H        1.35709700       1.03718000      -0.98958900
H        0.76605300      -1.25422300       0.96110100
H        1.87365400       0.13137500       1.12386400
H        2.26277400      -1.12934200      -0.08968900
14
Properties=species:S:1:pos:R:3 smiles=CCCC pbc="F F F"
C        1.42321300      -0.54381300       0.11628300
C        0.66329500       0.51467100      -0.62942400
C       -0.71553900       0.76622700      -0.09268900
C       -1.39560700      -0.48072600       0.41781500
H        2.30190900      -0.81796700      -0.52138700
H        1.86441800      -0.09952400       1.04408800
H        0.84590000      -1.46061800       0.30778200
H        0.66434200       0.29571000      -1.72553400
H        1.24146400       1.46731300      -0.52113100
H       -0.68609000       1.47520700       0.77111100
H       -1.36811600       1.16347700      -0.90691900
H       -0.89387000      -0.85495900       1.34590400
H       -1.52512200      -1.25952400      -0.34595700
H       -2.42019700      -0.16547400       0.74005800
14
Properties=species:S:1:pos:R:3 smiles=CCCC pbc="F F F"
C       -1.58902100      -0.39572900      -0.22665600
C       -0.63374800       0.56788700       0.38852900
C        0.71257600       0.63961000      -0.26770900
C        1.55912600      -0.58500800       0.05204300
H       -2.23723000       0.05161400      -1.01332200
H       -2.29587100      -0.69472500       0.58947000
H       -1.15740600      -1.31913800      -0.61749800
H       -1.07668300       1.59179300       0.29498600
H       -0.46266400       0.37464900       1.46782000
H        1.24750100       1.50879800       0.19466300
H        0.63553300       0.82079300      -1.35894400
H        2.61584600      -0.26903000       0.24002300
H        1.17216400      -0.97212800       1.02251400
H        1.50987600      -1.31938600      -0.76591800
14
Properties=species:S:1:pos:R:3 smiles=CCCC pbc="F F F"
C        1.39494800      -0.43797000       0.08093100
C        0.62380200       0.83412200       0.08815100
C       -0.85737700       0.69089700      -0.01199700
C       -1.28074700      -0.74059100      -0.12019000
H        2.43541200      -0.19298200      -0.25173700
H        1.03437600      -1.21797400      -0.59763100
H        1.51954500      -0.88645200       1.09880600
H        0.90966400       1.39272800       1.00908300
H        0.97419800       1.46124300      -0.76532000
H       -1.32846200       1.18701700       0.87461500
H       -1.28641200       1.21763900      -0.90204700
H       -2.37480700      -0.85311000      -0.10067700
H       -0.94124700      -1.13416800      -1.10829500
H       -0.82289300      -1.32039900       0.70630800
14
Properties=species:S:1:pos:R:3 smiles=CCCC pbc="F F F"
C       -1.51974300       0.55646000       0.04989800
C       -0.70686600      -0.66235600       0.34601000
C        0.71592100      -0.39002800       0.70627400
C        1.53404900       0.29654100      -0.31773300
H       -1.41830400       1.28691400       0.86590900
H       -1.33122300       0.98940100      -0.95993600
H       -2.59559200       0.24902300       0.03708000
H       -1.18247400      -1.14280500       1.23974000
H       -0.82245200      -1.40988800      -0.47203400
H        1.19865600      -1.36280800       0.96398500
H        0.69063500       0.18467700       1.66364300
H        1.00487200       0.91149700      -1.04616800
H        2.27852800       0.93340200       0.21716000
H        2.15399500      -0.44003000      -0.88920300
14
Properties=species:S:1:pos:R:3 smiles=CCCC pbc="F F F"
C       -1.70585700       0.18628700       0.68043400
C       -0.60506700      -0.41004900      -0.14702000
C        0.70500700      -0.52552100       0.57679500
C        1.67197000       0.56420000       0.12943800
H       -2.29894400      -0.59078500       1.22414900
H       -1.37273300       0.95668500       1.39228800
H       -2.43923900       0.63432400      -0.03550400
H       -0.94359100      -1.39467900      -0.52792500
H       -0.46110600       0.23146000      -1.04348600
H        0.61307800      -0.57732600       1.67182400
H        1.18017700      -1.49045000       0.26660600
H        2.42661600       0.66942400       0.92302400
H        1.08264000       1.46890800      -0.07179200
H        2.14704800       0.27752100      -0.84049500
14
Properties=species:S:1:pos:R:3 smiles=CCCC pbc="F F F"
C        1.86932900       0.13566000      -0.30980000
C        0.57531300      -0.15658600       0.44071700
C       -0.53799400       0.10098400      -0.54357500
C       -1.90691800      -0.12721400       0.04278200
H        1.77724900      -0.16960300      -1.38083300
H        1.99022600       1.24650800      -0.27832400
H        2.72566800      -0.41017600       0.10751100
H        0.63834800      -1.19851200       0.77950400
H        0.53645100       0.50802500       1.32875400
H       -0.39148900      -0.62276100      -1.38003200
H       -0.46079700       1.15321300      -0.86200200
H       -2.10271200       0.62033400       0.83530200
H       -2.64208900       0.08481500      -0.76245700
H       -2.07058500      -1.16468700       0.36048000
14
Properties=species:S:1:pos:R:3 smiles=CCCC pbc="F F F"
C        1.80571500      -0.21580800       0.12240600
C        0.47529600      -0.30408700      -0.59133200
C       -0.50719900       0.70009200       0.00028700
C       -1.77349600      -0.04519300       0.35324700
H        2.49803700       0.45779800      -0.42889000
H        2.25277800      -1.23689800       0.15929500
H        1.59717000       0.15210900       1.15635400
H        0.09785900      -1.35221000      -0.47704000
H        0.58116100      -0.16978200      -1.69753100
H       -0.09736200       1.15099800       0.92933600
H       -0.67677600       1.52291200      -0.72437300
H       -2.42051900       0.01302600      -0.55577600
H       -1.48671800      -1.09357700       0.58595300
H       -2.34594700       0.42062000       1.16806400
14
Properties=species:S:1:pos:R:3 smiles=CCCC pbc="F F F"
C       -1.74048800       0.24759700       0.35027800
C       -0.52998900      -0.63545500       0.08268600
C        0.46561700       0.22628000      -0.67795100
C        1.79558200       0.04798400       0.04721900
H       -1.33295300       1.23136800       0.67460500
H       -2.42594900      -0.19993800       1.08952300
H       -2.27435000       0.31630700      -0.63168000
H       -0.82001900      -1.54161200      -0.50225000
H       -0.14586200      -0.94093200       1.08182700
H        0.21635700       1.29923100      -0.62528500
H        0.53638700      -0.05220800      -1.74223500
H        1.54174000       0.17952800       1.13028900
H        2.17807400      -0.98816500      -0.04295200
H        2.53585200       0.81001700      -0.23407600
14
Properties=species:S:1:pos:R:3 smiles=CCCC pbc="F F F"
C        1.64749800      -0.25880800       0.23637900
C        0.47444700       0.69509900       0.35985200
C       -0.56285200       0.34036600      -0.69557400
C       -1.57466800      -0.56346300      -0.00104500
H        1.45138300      -1.04322600      -0.50853400
H        2.49390400       0.34181300      -0.12610900
H        1.90480400      -0.73057400       1.21332100
H        0.00557200       0.62852400       1.37474100
H        0.76907600       1.75314700       0.24441600
H       -1.06994000       1.25625200      -1.07560400
H       -0.09658500      -0.15485900      -1.57005500
H       -2.44459100       0.07519700       0.27062800
H       -1.17001900      -0.95101500       0.95673800
H       -1.82802700      -1.38845400      -0.67915500
14
Properties=species:S:1:pos:R:3 smiles=CCCC pbc="F F F"
C       -1.45686400       0.45258700       0.60401600
C       -0.68518900       0.17040500      -0.65740000
C        0.50872600      -0.71869900      -0.45006600
C        1.60121000      -0.03757600       0.36128000
H       -1.59975500      -0.46606900       1.20308200
H       -1.04870100       1.29741900       1.18720000
H       -2.47267000       0.78219200       0.26526900
H       -1.35031000      -0.33716400      -1.37840100
H       -0.35334300       1.11625100      -1.09552200
H        0.25849600      -1.72124200      -0.06787700
H        0.95191200      -0.86138400      -1.46948100
H        1.96692300       0.79649000      -0.27441700
H        2.44574500      -0.76358700       0.42516500
H        1.23381900       0.29037700       1.34715300
14
Properties=species:S:1:pos:R:3 smiles=CCCC pbc="F F F"
C       -1.46517600       0.16885900       0.33327000
C       -0.57145900      -0.08847900      -0.86861300
C        0.72435600      -0.66856400      -0.31472300
C        1.38587700       0.41370500       0.49324100
H       -1.00678000      -0.20480400       1.28433900
H       -2.46200000      -0.30923900       0.19131500
H       -1.61473700       1.26379200       0.50958800
H       -0.99993700      -0.89543000      -1.51443400
H       -0.39591400       0.83176600      -1.46502600
H        0.39931100      -1.52170300       0.33296600
H        1.33848500      -1.05152900      -1.14063300
H        2.49920800       0.36561500       0.44968500
H        1.06622700       1.40730500       0.14805700
H        1.10254100       0.28870600       1.56096800
14
Properties=species:S:1:pos:R:3 smiles=CCCC pbc="F F F"
C        1.44871600       0.44260500      -0.36728500
C        0.70123500      -0.55445700       0.47085000
C       -0.71699200      -0.09508100       0.76844100
C       -1.43241200       0.07231600      -0.54149100
H        1.93600800       1.22173000       0.25714000
H        0.81461500       0.98183900      -1.09256400
H        2.18388900      -0.13573500      -0.97908900
H        0.59200800      -1.53494600      -0.02390300
H        1.25000000      -0.67067400       1.42122100
H       -1.18586700      -0.89817600       1.39103700
H       -0.64917400       0.84502000       1.33209900
H       -0.82471200      -0.19515400      -1.42694100
H       -2.32141100      -0.60691900      -0.58415200
H       -1.79590100       1.12763100      -0.62536300
14
Properties=species:S:1:pos:R:3 smiles=CCCC pbc="F F F"
C        1.89784000       0.07261800       0.03419000
C        0.49116300      -0.42045600       0.04881700
C       -0.52395300       0.59380900       0.49832500
C       -1.86730000      -0.12973800       0.42207600
H        2.41747400      -0.30183400      -0.88224800
H        2.01464500       1.16261500       0.09184500
H        2.43762900      -0.38227400       0.89753300
H        0.21037100      -0.73941600      -0.97924800
H        0.37873500      -1.31473700       0.69093500
H       -0.61096400       1.44307900      -0.20535400
H       -0.33614400       0.89597200       1.54403600
H       -1.68547200      -1.17605300       0.77524400
H       -2.60463000       0.40758500       1.05071200
H       -2.21939500      -0.11117100      -0.63501700
14
Properties=species:S:1:pos:R:3 smiles=CCCC pbc="F F F"
C       -1.31411800      -0.01448200       0.70171300
C       -0.76088300      -0.44495600      -0.62647200
C        0.68544500      -0.09793500      -0.82381300
C        1.34606700       0.43217500       0.42779500
H       -2.14569100      -0.69021500       0.99631200
H       -0.54283300      -0.01033200       1.51257700
H       -1.70709300       1.02654700       0.58339000
H       -1.33095000       0.06049200      -1.44350400
H       -0.96487700      -1.53569100      -0.76762600
H        0.84682800       0.67742000      -1.60737100
H        1.21133100      -1.04656600      -1.09248000
H        2.39441600       0.69162900       0.13780900
H        1.44513200      -0.38010300       1.17713600
H        0.83722600       1.33201900       0.82453400
14
Properties=species:S:1:pos:R:3 smiles=CCCC pbc="F F F"
C        1.69790100      -0.07104800       0.51618100
C        0.53482800      -0.59623900      -0.31683800
C       -0.44827300       0.53305500      -0.51179700
C       -1.79098000       0.08644200       0.05326300
H        1.60002200       1.02368000       0.66547300
H        2.64809700      -0.21436300      -0.02370300
H        1.67620700      -0.53107000       1.51861300
H        0.87745700      -1.01482300      -1.29141800
H        0.07105500      -1.46150700       0.22178000
H       -0.15635500       1.41148200       0.11981400
H       -0.51499600       0.86843200      -1.55803400
H       -2.26156700      -0.52639500      -0.72740100
H       -2.39476200       0.97372200       0.35555000
H       -1.53863500      -0.48137000       0.97851700
14
Properties=species:S:1:pos:R:3 smiles=CCCC pbc="F F F"
C        1.90562200      -0.21256900       0.06235100
C        0.45707600      -0.51729000       0.32320200
C       -0.45334500       0.42092100      -0.46019100
C       -1.87809600       0.29409500       0.05545800
H        2.10376100       0.11994100      -0.97716900
H        2.19695000       0.61755800       0.71881600
H        2.48487000      -1.14882000       0.26111900
H        0.20972100      -1.55903400       0.04573500
H        0.22522900      -0.40417900       1.39124800
H       -0.44291200       0.03445400      -1.49781900
H       -0.09136700       1.45508900      -0.36090600
H       -2.34470000      -0.59600800      -0.39406100
H       -2.45780400       1.17519300      -0.32105800
H       -1.91500500       0.32065100       1.15327400
14
Properties=species:S:1:pos:R:3 smiles=CCCC pbc="F F F"
C       -1.80036000      -0.17930600      -0.47572400
C       -0.49615100      -0.66400700       0.14708200
C        0.41589400       0.53990300       0.17095100
C        1.87171400       0.18112500       0.27718000
H       -2.03178800       0.78119600       0.03682900
H       -2.62505600      -0.88915600      -0.33146500
H       -1.57604400       0.07093400      -1.52205700
H       -0.12188300      -1.46248400      -0.53024200
H       -0.70479500      -1.04089600       1.17249100
H        0.26961800       1.08770900      -0.78570900
H        0.06521100       1.17429200       1.00708800
H        2.08430600      -0.58828900       1.03936000
H        2.23573700      -0.15317500      -0.72689700
H        2.41359800       1.14215400       0.47338500
