27
Properties=species:S:1:pos:R:3 smiles=CC1(C)C2CCC1(C)C(=O)C2 config_type=start_0 pbc="F F F"
C       -1.35281900      -1.18590500       0.88533000
C       -0.64098000      -0.37013900      -0.13723300
C       -1.04101200      -0.72442900      -1.53618600
C       -0.89760100       1.12667200       0.03219800
C       -0.22787800       1.36949100       1.35134700
C        0.95998500       0.41105100       1.36850200
C        0.84605200      -0.28322300       0.04710800
C        1.58818700      -1.55077000      -0.08023900
C        1.17245300       0.73128300      -1.00540200
O        2.28593900       0.86576600      -1.45674800
C        0.00040200       1.67071600      -1.04363500
H       -2.43842700      -0.91643900       0.83988800
H       -1.00271300      -0.96011600       1.90161900
H       -1.29252400      -2.24332100       0.59800600
H       -0.18336200      -0.63561100      -2.24661900
H       -1.42470800      -1.76549000      -1.63860700
H       -1.81673800      -0.02607700      -1.90430100
H       -1.94206300       1.40088800      -0.03461200
H       -0.88121400       1.24115800       2.22514700
H        0.16906600       2.41375300       1.40966900
H        1.92029900       0.97869800       1.36134800
H        0.92157900      -0.29130500       2.21367000
H        2.66102500      -1.33467700       0.10110900
H        1.25183000      -2.24140100       0.70215600
H        1.50685300      -1.92214300      -1.10682600
H       -0.51244500       1.55407900      -2.00812500
H        0.37081600       2.68749000      -0.83856400
27
Properties=species:S:1:pos:R:3 smiles=CC1(C)C2CCC1(C)C(=O)C2 config_type=start_1 pbc="F F F"
C        0.90820400      -1.35226100      -1.10333300
C        0.67597600      -0.28231800      -0.09630900
C        1.94554700       0.49631400       0.09723200
C        0.11898700      -0.80277800       1.22240900
C       -1.18671400      -1.39103000       0.78004400
C       -1.64935000      -0.35570000      -0.24160800
C       -0.51307600       0.60527600      -0.41819200
C       -0.44476300       1.31979500      -1.69499100
C       -0.46788500       1.48371400       0.79608000
O       -0.23031400       2.67381400       0.74809500
C       -0.21317400       0.51122000       1.91276300
H        1.11990700      -0.86715200      -2.07444500
H        0.06896500      -2.04272900      -1.26027100
H        1.79896300      -1.92239100      -0.82517500
H        2.71562800      -0.21489000       0.45046900
H        2.22729500       0.89494500      -0.88902100
H        1.76598300       1.30558800       0.83074700
H        0.78027300      -1.44898100       1.77127500
H       -1.86294900      -1.44950300       1.64458300
H       -1.11312900      -2.40034400       0.35606100
H       -1.99631600      -0.82352600      -1.17440000
H       -2.50953900       0.18469300       0.22584800
H       -0.05916600       0.72534700      -2.52501500
H        0.19545900       2.22439400      -1.57868300
H       -1.46851200       1.66672500      -1.96509800
H       -1.19676500       0.40205600       2.43474600
H        0.59046700       0.85972100       2.57618900
27
Properties=species:S:1:pos:R:3 smiles=CC1(C)C2CCC1(C)C(=O)C2 config_type=start_2 pbc="F F F"
C        1.57482200       0.77666700      -0.93580200
C        0.70664000       0.18635800       0.13613500
C        1.21407900       0.59503500       1.47200700
C        0.64003200      -1.30194100      -0.08734100
C       -0.40158300      -1.70758200       0.91293700
C       -1.46234300      -0.62023600       0.76319400
C       -0.76627100       0.43560100      -0.07767500
C       -1.22564000       1.81016500       0.13570600
C       -0.88339300      -0.07578300      -1.48456000
O       -1.18707700       0.60339200      -2.46212100
C       -0.03187400      -1.31659400      -1.45755900
H        1.07887100       0.76984400      -1.94001800
H        1.81728500       1.81961100      -0.69252300
H        2.46393300       0.12044800      -1.03402600
H        1.17830100       1.71389400       1.50066000
H        0.67756900       0.18496800       2.33450100
H        2.30700500       0.35397400       1.49070900
H        1.57979500      -1.82787500      -0.04574100
H       -0.05224900      -1.66944100       1.95931100
H       -0.89131100      -2.66736300       0.69509500
H       -2.35416300      -1.00180100       0.21710300
H       -1.80468500      -0.24424100       1.73486100
H       -2.10098000       1.78354700       0.83535000
H       -0.50187100       2.49581000       0.63556400
H       -1.56522200       2.25020600      -0.81673500
H       -0.74329500      -2.16185300      -1.54106000
H        0.73362400      -1.30480700      -2.24797200
27
Properties=species:S:1:pos:R:3 smiles=CC1(C)C2CCC1(C)C(=O)C2 config_type=start_3 pbc="F F F"
C       -1.17143400      -0.36474300       1.61587100
C       -0.66512600      -0.26810800       0.20973000
C       -1.36238000      -1.22537200      -0.70801700
C       -0.79327300       1.15944000      -0.32048100
C       -0.00661900       1.04481800      -1.59123200
C        1.03839400      -0.04313900      -1.35571000
C        0.84016200      -0.32497500       0.10595000
C        1.47035700      -1.54486000       0.62460500
C        1.20922500       0.93412100       0.83227700
O        2.36963200       1.34108700       0.80558200
C        0.05248300       1.88122400       0.68904300
H       -1.48082500      -1.42131000       1.81811300
H       -0.46177700      -0.01784900       2.38274600
H       -2.12073500       0.22371900       1.65772800
H       -2.46001400      -1.07526600      -0.54878100
H       -1.17805700      -0.99803900      -1.76752000
H       -1.15381900      -2.26386600      -0.41771400
H       -1.81460600       1.50054200      -0.41650600
H       -0.60737300       0.85871300      -2.48979200
H        0.56067800       1.98640000      -1.77491800
H        0.85402500      -0.90727100      -2.01075300
H        2.06330000       0.31731300      -1.59031700
H        2.47419200      -1.68044500       0.17462900
H        0.84415100      -2.42452400       0.34683900
H        1.60957200      -1.45397200       1.71668500
H       -0.46925500       1.89092100       1.67171100
H        0.35912100       2.87544000       0.34023200
27
Properties=species:S:1:pos:R:3 smiles=CC1(C)C2CCC1(C)C(=O)C2 config_type=start_4 pbc="F F F"
C        1.66654200      -0.50646600       0.92742800
C        0.65221300      -0.28964000      -0.16577100
C        0.80645000      -1.23386600      -1.31200900
C        0.63581400       1.15822600      -0.64456000
C       -0.65651600       1.20525600      -1.39348800
C       -1.54533900       0.10956600      -0.81169600
C       -0.76283800      -0.26441900       0.40826500
C       -1.16429500      -1.49882200       1.09633600
C       -0.61541000       0.93522700       1.29681900
O       -0.95364300       0.89451400       2.47822200
C        0.39777400       1.85684900       0.67953100
H        1.75510500      -1.60836900       1.07390000
H        1.35014000      -0.02646800       1.86554500
H        2.63176500      -0.13973000       0.55016100
H        0.96052800      -0.67961500      -2.27256100
H        1.76828600      -1.78598200      -1.15550600
H        0.01671100      -1.99364800      -1.39175000
H        1.52112700       1.46384900      -1.17777600
H       -0.57435700       1.15043400      -2.48255700
H       -1.17076900       2.16494000      -1.13271900
H       -1.61339100      -0.71258200      -1.53144100
H       -2.56580300       0.46575300      -0.61605800
H       -1.74351300      -2.18426900       0.45545100
H       -1.80787600      -1.26438800       1.98181400
H       -0.25528800      -1.99453200       1.51730000
H       -0.05963500       2.85940100       0.49561000
H        1.32621700       1.91877800       1.26151200
27
Properties=species:S:1:pos:R:3 smiles=CC1(C)C2CCC1(C)C(=O)C2 config_type=start_5 pbc="F F F"
C        1.79736000       0.45016300       0.70449500
C        0.64265800       0.35719200      -0.25555900
C        0.54379300       1.51668700      -1.18391100
C        0.54835200      -0.98915600      -0.94057600
C       -0.81599100      -0.90444100      -1.55965800
C       -1.63581400      -0.35089500      -0.39751300
C       -0.60947900       0.16116200       0.59682000
C       -1.01205000       1.33298300       1.37352700
C       -0.16632900      -1.03083700       1.35393900
O       -0.20780200      -1.32255800       2.52184800
C        0.43499300      -1.89592800       0.27965900
H        2.57969000       1.10242200       0.23988900
H        1.48860400       0.83494200       1.70716600
H        2.29495000      -0.51682900       0.89417100
H        1.36929300       1.42423500      -1.92741200
H        0.70164800       2.43632300      -0.56686400
H       -0.45484200       1.55343000      -1.63939900
H        1.36157300      -1.23131600      -1.60628800
H       -1.14287400      -1.95407400      -1.77461100
H       -0.86976100      -0.26418700      -2.45199000
H       -2.34675000       0.42442300      -0.71109700
H       -2.19927800      -1.19780500       0.06947100
H       -0.22412100       2.12854800       1.38396800
H       -1.34073800       1.16738800       2.40875800
H       -1.87298200       1.82068800       0.84780900
H        1.40124500      -2.32002400       0.57761800
H       -0.26534900      -2.73253600       0.05574000
27
Properties=species:S:1:pos:R:3 smiles=CC1(C)C2CCC1(C)C(=O)C2 config_type=start_6 pbc="F F F"
C        1.39773300      -0.58644000      -1.27757700
C        0.70857700       0.07599800      -0.13100100
C        1.67554500       0.25696000       1.00020500
C        0.01343000       1.37387100      -0.52029800
C       -1.08735400       0.85610000      -1.40122900
C       -1.39329900      -0.56202800      -0.91989800
C       -0.55892500      -0.63288900       0.30976800
C       -0.34973000      -1.95945200       0.91361400
C       -1.09404300       0.38990700       1.26770300
O       -1.31343000       0.11971800       2.44464700
C       -0.60419900       1.73435000       0.81135600
H        2.17940500       0.12676000      -1.64215800
H        1.95098400      -1.45354600      -0.88223200
H        0.76279800      -0.80453600      -2.14461000
H        1.18822500       0.49221700       1.96124100
H        2.42793800       0.99927300       0.68698800
H        2.17817800      -0.72709900       1.14461400
H        0.65975900       2.12065500      -0.95205700
H       -2.01244500       1.46105300      -1.22399700
H       -0.86752900       0.89690400      -2.47477200
H       -1.15230500      -1.31464400      -1.69026900
H       -2.48784600      -0.68151100      -0.72239800
H        0.42026000      -1.84209800       1.71819300
H       -0.04809200      -2.67646900       0.14297300
H       -1.27481400      -2.28355200       1.40718600
H       -1.42949900       2.44238500       0.65734700
H        0.11067800       2.17811400       1.51665800
27
Properties=species:S:1:pos:R:3 smiles=CC1(C)C2CCC1(C)C(=O)C2 config_type=start_7 pbc="F F F"
C        1.33379000      -0.85001800      -1.15479200
C        0.74750500      -0.03325200      -0.05651100
C        1.65384100       0.20768500       1.10859900
C        0.23348100       1.29894100      -0.60233500
C       -0.85429700       0.81166700      -1.51654000
C       -1.34683400      -0.50611600      -0.92533800
C       -0.62541600      -0.52257000       0.39296800
C       -0.60262300      -1.83820500       1.06778000
C       -1.01936800       0.62434300       1.24722900
O       -1.89329700       0.56393600       2.08555600
C       -0.40704600       1.85358800       0.63421500
H        1.10822200      -0.40931300      -2.15800600
H        2.44664800      -0.77792900      -1.05380300
H        1.09402000      -1.92203500      -1.11165000
H        0.99614900       0.41158800       1.99210800
H        2.34581000      -0.62571600       1.30128000
H        2.23850200       1.13700600       0.89066800
H        1.00138500       1.90779800      -1.06012300
H       -1.71785000       1.51581900      -1.45881000
H       -0.54931600       0.70486400      -2.56528000
H       -2.44022300      -0.55016600      -0.83992000
H       -0.93222500      -1.34874000      -1.53591100
H       -0.10386500      -2.56373900       0.40606600
H       -1.64966700      -2.17973000       1.17294900
H       -0.16773000      -1.75325800       2.06785600
H        0.34884900       2.31227200       1.28969000
H       -1.23844700       2.53128100       0.38205400
27
Properties=species:S:1:pos:R:3 smiles=CC1(C)C2CCC1(C)C(=O)C2 config_type=start_8 pbc="F F F"
C        1.38885100      -1.33121400       0.59429400
C        0.76495500      -0.09132200       0.02762000
C        1.62475000       0.62859300      -0.96238400
C        0.30249100       0.84892400       1.13916900
C       -0.55378200       1.80289000       0.34143600
C       -1.09382000       1.00001600      -0.84260200
C       -0.63603800      -0.37520300      -0.49094600
C       -0.70648300      -1.40322800      -1.54433700
C       -1.32769200      -0.75967300       0.77963100
O       -2.49824200      -1.13445600       0.77382200
C       -0.61782300      -0.05488100       1.89832900
H        2.13676900      -1.09831500       1.36881300
H        0.56378800      -1.93858700       1.04605200
H        1.79347000      -1.93278100      -0.23006300
H        2.67584100       0.25305400      -0.99592800
H        1.71466100       1.69950000      -0.64774000
H        1.25819900       0.60283300      -1.99719300
H        1.10890500       1.29994900       1.69987900
H       -1.44221700       2.06942600       0.95141900
H       -0.01232800       2.70344500       0.02013800
H       -2.18257900       1.10046300      -0.94822800
H       -0.58718200       1.42773000      -1.73584900
H        0.05564300      -1.25219800      -2.31712800
H       -1.72625800      -1.43962400      -1.94239700
H       -0.52149000      -2.39059400      -1.04677500
H       -0.12351200      -0.75499200       2.58067800
H       -1.35887600       0.52024500       2.48029100
27
Properties=species:S:1:pos:R:3 smiles=CC1(C)C2CCC1(C)C(=O)C2 config_type=start_9 pbc="F F F"
C       -1.43356000       0.39019000       1.41282700
C       -0.70483400      -0.12966500       0.21765200
C       -1.67352000      -0.57997000      -0.82674700
C        0.20207800      -1.31228300       0.54133900
C        0.94747800      -1.44845700      -0.75600700
C        0.90563700      -0.08207300      -1.43394600
C        0.38466900       0.76443600      -0.29127700
C        0.00997300       2.13698600      -0.63780600
C        1.39875000       0.63729000       0.80844200
O        2.54975900       1.02028900       0.59944300
C        1.14236300      -0.66347900       1.51513500
H       -2.06568700       1.23935400       1.05785000
H       -2.02939800      -0.44322900       1.82880500
H       -0.78955000       0.78621000       2.21001800
H       -2.51609800      -1.07605200      -0.28072800
H       -2.12607800       0.23230600      -1.41621600
H       -1.23229600      -1.37301900      -1.46238400
H       -0.31797100      -2.19086500       0.88974100
H        0.59572700      -2.25914400      -1.40175000
H        2.03188400      -1.62431300      -0.53712000
H        0.17600300      -0.12922900      -2.28087200
H        1.89969200       0.27235300      -1.73766400
H        0.57654200       2.84267900       0.02235700
H        0.34429300       2.38369600      -1.67759300
H       -1.05268200       2.41186200      -0.50238700
H        0.72874800      -0.52649900       2.52287100
H        2.04807700      -1.27937500       1.61601900
27
Properties=species:S:1:pos:R:3 smiles=CC1(C)C2CCC1(C)C(=O)C2 config_type=start_10 pbc="F F F"
C        1.12069900      -1.51893800      -0.63439800
C        0.72491600      -0.22202000      -0.02376600
C        1.71993200       0.26893900       0.99132400
C        0.48656500       0.86482000      -1.06710100
C       -0.73944300       0.35896300      -1.78940600
C       -1.49115600      -0.44408600      -0.72997800
C       -0.68671600      -0.19651000       0.52813600
C       -0.95596900      -1.11154300       1.64480500
C       -0.74397600       1.25761000       0.87349900
O       -1.48300700       1.71061900       1.71117300
C        0.01992200       1.99328800      -0.18954700
H        2.02621400      -1.93834900      -0.12743000
H        1.42539000      -1.31782500      -1.68306000
H        0.34819900      -2.29482700      -0.56647100
H        2.00735600      -0.54392200       1.68454700
H        2.64879500       0.54994000       0.44391000
H        1.30651300       1.08695600       1.60297200
H        1.34060800       1.07440400      -1.69412500
H       -0.51179900      -0.30777300      -2.63328500
H       -1.40254000       1.21463600      -2.08064500
H       -1.50343300      -1.51232600      -0.99103800
H       -2.51851400      -0.04944000      -0.56564200
H       -1.67436900      -1.89608900       1.29425900
H       -1.53219900      -0.55852600       2.43055100
H       -0.10221900      -1.65271100       2.07071300
H        0.88364500       2.54164300       0.21131200
H       -0.71341200       2.64306500      -0.71131100
27
Properties=species:S:1:pos:R:3 smiles=CC1(C)C2CCC1(C)C(=O)C2 config_type=start_11 pbc="F F F"
C        1.36746300      -0.15947500       1.45755600
C        0.71598400      -0.19131600       0.11954400
C        1.63373500       0.10813700      -1.02805600
C       -0.07209600      -1.46670700      -0.14447300
C       -1.18148700      -1.34091900       0.84321300
C       -1.44986700       0.15308600       0.98150300
C       -0.48135800       0.74600800       0.00501400
C       -0.16020300       2.16932900       0.18723600
C       -0.94494300       0.36413000      -1.36031800
O       -1.19103500       1.06944500      -2.30972500
C       -0.64572800      -1.10179900      -1.50640900
H        1.90854800      -1.12005200       1.58552700
H        0.66680000       0.06053500       2.27601800
H        2.16187600       0.62505000       1.42120400
H        2.50833900       0.71485500      -0.74594200
H        2.04402800      -0.84842500      -1.44054500
H        1.09770500       0.59158400      -1.87414400
H        0.50995100      -2.37230200      -0.12465100
H       -2.08606900      -1.80937500       0.37928400
H       -1.01186400      -1.82319900       1.81240400
H       -2.48520900       0.39198300       0.62812400
H       -1.32333200       0.51644100       2.00728900
H        0.87379000       2.39986100      -0.15578500
H       -0.16699100       2.39371900       1.28342700
H       -0.89168100       2.81780100      -0.31493100
H       -1.54514500      -1.69502300      -1.71361400
H        0.14879000      -1.19337200      -2.26874900
27
Properties=species:S:1:pos:R:3 smiles=CC1(C)C2CCC1(C)C(=O)C2 config_type=start_12 pbc="F F F"
C        1.72150200       0.20585900       0.97773000
C        0.72166800       0.16108100      -0.13947100
C        1.10492800       0.95365400      -1.34481700
C        0.45304600      -1.30771600      -0.45784500
C       -0.69657900      -1.15902300      -1.41006400
C       -1.55616600      -0.07550000      -0.76645500
C       -0.69756100       0.45085700       0.34194100
C       -0.93372300       1.84262200       0.74954700
C       -0.77816200      -0.55577500       1.44924600
O       -0.97788400      -0.37849600       2.62755400
C       -0.07659300      -1.75811900       0.88119200
H        2.17173900       1.20887900       1.08151600
H        2.54996000      -0.50046000       0.74314700
H        1.24056600      -0.13869000       1.91098200
H        0.28492900       1.63010200      -1.62446600
H        1.97841800       1.59619000      -1.07480700
H        1.45297500       0.32832900      -2.20399500
H        1.31321000      -1.84886300      -0.82427500
H       -0.40861700      -0.80945000      -2.41163800
H       -1.28497900      -2.09092400      -1.40310500
H       -1.89949200       0.67913500      -1.48327800
H       -2.46857300      -0.52632100      -0.29878600
H       -0.02337700       2.43067400       1.01329700
H       -1.38420500       2.39880300      -0.11212500
H       -1.70940600       1.88766800       1.54738400
H        0.75088000      -2.08893800       1.52329700
H       -0.84850100      -2.53558100       0.70829200
27
Properties=species:S:1:pos:R:3 smiles=CC1(C)C2CCC1(C)C(=O)C2 config_type=start_13 pbc="F F F"
C        1.53645800       0.07289200      -1.23655500
C        0.73094200       0.05530200       0.04467300
C        1.43783700       0.69301000       1.17993400
C        0.31912200      -1.38881800       0.31690100
C       -0.67560500      -1.20852800       1.41943000
C       -1.40809500       0.06096400       0.99703600
C       -0.67709800       0.56646600      -0.19800200
C       -0.76651000       2.00860000      -0.47568200
C       -1.02899200      -0.32742400      -1.34864300
O       -1.47041800      -0.01790000      -2.43160800
C       -0.45912700      -1.66047600      -0.95000500
H        1.99200200       1.07107100      -1.32172000
H        0.86353400      -0.07732000      -2.11849000
H        2.29886400      -0.74642900      -1.22736000
H        2.24985200       0.00205700       1.49678400
H        1.94090900       1.61276600       0.79977800
H        0.77264900       0.97504900       1.99982600
H        1.14632800      -2.05519300       0.50705700
H       -0.22890700      -1.06379100       2.41545600
H       -1.35339300      -2.08897500       1.41023100
H       -1.32434100       0.83684600       1.79832400
H       -2.48679900      -0.15584600       0.81239900
H       -1.38695600       2.29936700      -1.33124700
H       -1.17826700       2.51299300       0.43552700
H        0.27975500       2.40417200      -0.55370100
H        0.21065900      -2.07098200      -1.71640800
H       -1.33440400      -2.30987600      -0.72393700
27
Properties=species:S:1:pos:R:3 smiles=CC1(C)C2CCC1(C)C(=O)C2 config_type=start_14 pbc="F F F"
C       -1.54785500      -0.06326900       1.17391400
C       -0.73945900      -0.09486300      -0.08221900
C       -1.41250600      -0.74810300      -1.23664600
C       -0.33601800       1.34613300      -0.38670900
C        0.75555200       1.16551400      -1.39111900
C        1.36856400      -0.18953500      -1.04202700
C        0.65246600      -0.57063300       0.20715800
C        0.79159200      -1.95985200       0.66356100
C        1.05234200       0.42680700       1.25533400
O        1.66157400       0.12316800       2.26184100
C        0.33032000       1.70335300       0.93161200
H       -2.24134000       0.79622700       1.12094900
H       -2.17391200      -0.97131800       1.32041700
H       -0.88096000      -0.01620100       2.06620700
H       -1.78268900      -1.73536800      -0.94152200
H       -2.30650600      -0.13143700      -1.50617700
H       -0.76129600      -0.73464200      -2.11798300
H       -1.15870700       1.98527600      -0.66674100
H        0.38913000       1.14706800      -2.44518700
H        1.53181000       1.95979000      -1.24535300
H        2.45757900      -0.05957300      -0.87053500
H        1.24582700      -0.92592400      -1.84678200
H        1.84937500      -2.15528600       0.90253700
H        0.48974000      -2.66201100      -0.11938000
H        0.18398000      -2.11084500       1.56768400
H        1.03914700       2.54014200       0.76122700
H       -0.45775200       1.93537900       1.66594100
27
Properties=species:S:1:pos:R:3 smiles=CC1(C)C2CCC1(C)C(=O)C2 config_type=start_15 pbc="F F F"
C        1.73632800       0.35253400       0.85384100
C        0.71293600       0.04285300      -0.19092300
C        1.32599600      -0.73837400      -1.33526600
C       -0.01378900       1.29147700      -0.69134300
C       -0.66461200       1.74905300       0.59047400
C       -1.09988100       0.43550000       1.23288400
C       -0.52989200      -0.62649300       0.33739000
C       -0.32908600      -1.91478100       1.01790100
C       -1.36228700      -0.64993900      -0.88155500
O       -1.76197800      -1.59786300      -1.54494200
C       -1.08449600       0.67329800      -1.53993100
H        1.83745200       1.44583900       1.07173200
H        1.60555400      -0.20030500       1.80241700
H        2.73566100       0.03044900       0.46326000
H        2.28376500      -0.26533200      -1.61023700
H        0.61124200      -0.81628500      -2.16633900
H        1.57276300      -1.75033700      -0.95091000
H        0.62698800       2.01453800      -1.17141000
H        0.00367600       2.32028600       1.24773200
H       -1.57404100       2.37478700       0.41147900
H       -0.65990900       0.30808900       2.24355900
H       -2.21043900       0.34910700       1.25774600
H       -1.30990800      -2.26947000       1.38758900
H        0.28691000      -1.73651000       1.91992700
H        0.09667300      -2.67658300       0.35443400
H       -2.01399900       1.28792400      -1.50863400
H       -0.82162700       0.56653800      -2.60087500
27
Properties=species:S:1:pos:R:3 smiles=CC1(C)C2CCC1(C)C(=O)C2 config_type=start_16 pbc="F F F"
C       -1.45949600      -1.09649800      -0.85180600
C       -0.55930700      -0.48598800       0.17936900
C       -0.33625400      -1.42916900       1.31139400
C       -1.00986400       0.89250500       0.58937600
C        0.16638000       1.34614100       1.41761600
C        1.35285100       0.77409200       0.65419100
C        0.74399900      -0.01768400      -0.46434000
C        1.60790500      -1.10205100      -0.94865900
C        0.16132800       0.87313800      -1.49453200
O        0.59632900       1.26199900      -2.55283500
C       -0.90195800       1.62133300      -0.73935700
H       -0.91339000      -1.79984200      -1.49563900
H       -1.93024900      -0.34111500      -1.50644300
H       -2.28456100      -1.60924700      -0.31163300
H       -0.05661600      -2.40678300       0.87599100
H       -1.27153900      -1.55977100       1.87080200
H        0.46415900      -1.13576800       2.00018600
H       -1.97258300       0.95421600       1.07014700
H        0.11095900       0.97834800       2.45447400
H        0.21230600       2.45185900       1.35848300
H        2.05228300       1.56231700       0.31648800
H        1.94719100       0.07801900       1.29237100
H        2.12918400      -1.53929100      -0.05947000
H        1.11382500      -1.91312400      -1.49422100
H        2.39390400      -0.68564000      -1.59031900
H       -0.50790000       2.64486700      -0.59680300
H       -1.84888400       1.68313700      -1.28483100
27
Properties=species:S:1:pos:R:3 smiles=CC1(C)C2CCC1(C)C(=O)C2 config_type=start_17 pbc="F F F"
C        1.37457300      -0.33396400      -1.42043200
C        0.66212000      -0.34944500      -0.11588100
C        1.09735900      -1.50816300       0.73780700
C        0.88361100       0.99121400       0.58631900
C        0.12453300       1.90726600      -0.34113100
C       -1.00944900       1.06007600      -0.90853200
C       -0.82676500      -0.23261200      -0.18854400
C       -1.58578400      -1.38270800      -0.68207200
C       -1.12683100       0.03010200       1.25918300
O       -2.01702200      -0.41374600       1.94600900
C        0.02636200       0.82473600       1.80060300
H        1.64640200      -1.38003300      -1.70480800
H        0.86734400       0.18262700      -2.23916000
H        2.35471100       0.18358900      -1.26025200
H        1.89844400      -2.09492600       0.22328400
H        0.27450800      -2.23206500       0.91508300
H        1.46839200      -1.19570900       1.72825200
H        1.92072000       1.23957400       0.75067400
H       -0.36007100       2.71174800       0.26808400
H        0.74608500       2.36985400      -1.11384800
H       -2.00627600       1.48935300      -0.67054000
H       -0.97691000       0.97938000      -2.00321000
H       -1.29848400      -1.69605300      -1.69200300
H       -1.57753800      -2.20009300       0.06315400
H       -2.65763900      -1.06324600      -0.75049000
H       -0.41438100       1.77126500       2.15754700
H        0.51198600       0.34198000       2.65490300
27
Properties=species:S:1:pos:R:3 smiles=CC1(C)C2CCC1(C)C(=O)C2 config_type=start_18 pbc="F F F"
C       -1.33806900       1.36387800      -0.67685300
C       -0.60609000       0.41914200       0.22532600
C       -0.72710300       0.74076200       1.68206600
C       -1.01898000      -1.03368400       0.00892100
C        0.06770300      -1.75359700       0.74633600
C        1.28330000      -0.83007400       0.74537400
C        0.82858000       0.22832300      -0.21910200
C        1.64197800       1.44865200      -0.28340200
C        0.60953600      -0.45753800      -1.53520300
O        1.56264400      -0.95769200      -2.13000400
C       -0.71248600      -1.16807600      -1.45813800
H       -1.04446100       2.39371200      -0.36630800
H       -2.42778400       1.31205400      -0.56095200
H       -0.97967800       1.23936800      -1.70837800
H       -0.25716500       1.68487600       1.98213700
H       -1.82166700       0.86751600       1.88147700
H       -0.41894100      -0.13579800       2.27917100
H       -2.03382500      -1.25185600       0.30347700
H       -0.20306900      -2.10416400       1.74737100
H        0.35217500      -2.64591400       0.13421800
H        1.52400300      -0.45148800       1.74922600
H        2.18068700      -1.33945200       0.34651300
H        1.20137800       2.34658100       0.22077600
H        2.69914600       1.29386100       0.04869400
H        1.73386700       1.74697900      -1.35871400
H       -1.46883200      -0.71655500      -2.11661900
H       -0.62684600      -2.23981500      -1.68741100
27
Properties=species:S:1:pos:R:3 smiles=CC1(C)C2CCC1(C)C(=O)C2 config_type=start_19 pbc="F F F"
C        0.73908300       0.93424900       1.63946900
C        0.63201400       0.12148100       0.37334000
C        1.94883500       0.10621900      -0.33625000
C        0.11613300      -1.29082100       0.63946400
C       -0.19237000      -1.75921600      -0.74700000
C       -0.48753100      -0.50703900      -1.56962900
C       -0.52959100       0.53853900      -0.49059000
C       -0.54861800       1.93541300      -0.93223800
C       -1.68068200       0.14857100       0.39404700
O       -2.79948700       0.09692100      -0.11850500
C       -1.19414400      -0.93644600       1.31277800
H       -0.23185500       1.34570800       1.97111700
H        1.50324100       1.73170700       1.45397200
H        1.20939500       0.27215800       2.41038500
H        2.33106500      -0.94627000      -0.35196900
H        2.71840800       0.66277300       0.25749000
H        1.93838400       0.55835300      -1.33647500
H        0.78328000      -1.90618900       1.22224100
H       -1.13685500      -2.36116500      -0.73553500
H        0.61660200      -2.35866800      -1.21259300
H       -1.44273900      -0.61116200      -2.12218000
H        0.34691200      -0.38073300      -2.27126100
H       -0.22862600       2.60249800      -0.11646300
H       -1.60011300       2.23568400      -1.17314700
H        0.05449000       2.07378700      -1.84198600
H       -1.87852600      -1.78769800       1.36747200
H       -0.98670500      -0.51865400       2.31404700
27
Properties=species:S:1:pos:R:3 smiles=CC1(C)C2CCC1(C)C(=O)C2 config_type=start_20 pbc="F F F"
C        1.33078900       0.17380000       1.44415300
C        0.71066600      -0.02870700       0.09350600
C        1.70892400       0.32564800      -0.95856100
C        0.17856600      -1.45113500      -0.07134300
C       -0.92119100      -1.43751400       0.96408200
C       -1.41021400       0.00754400       1.03023100
C       -0.62430900       0.64108700      -0.07017700
C       -0.62000700       2.10684200      -0.12917700
C       -1.07228900       0.03313900      -1.35988600
O       -1.27533600       0.67557800      -2.37574300
C       -0.46395200      -1.33943900      -1.42059300
H        1.32005000       1.24935300       1.70713300
H        0.82387600      -0.36578000       2.25890900
H        2.39858800      -0.14530600       1.35877400
H        2.20123400       1.27436800      -0.65340200
H        2.50630200      -0.43160000      -1.01459400
H        1.23369100       0.41240500      -1.95063100
H        0.92537100      -2.21993200       0.05003300
H       -0.59439300      -1.79575400       1.95049000
H       -1.71432300      -2.11350800       0.58414100
H       -1.17314600       0.45924500       2.00963100
H       -2.50028200       0.06953200       0.89944900
H       -1.66599600       2.44927600      -0.28908500
H       -0.04457800       2.40146600      -1.04275200
H       -0.23280400       2.59043600       0.77091000
H       -1.27033600      -2.10519000      -1.52059600
H        0.24509900      -1.43585200      -2.26490400
27
Properties=species:S:1:pos:R:3 smiles=CC1(C)C2CCC1(C)C(=O)C2 config_type=start_21 pbc="F F F"
C        0.96087000      -0.86933500       1.58443000
C        0.63472600      -0.30794000       0.24716700
C        1.51074400      -0.96595400      -0.78643500
C        0.78974100       1.20778100       0.16604100
C        0.22271000       1.44703800      -1.21404400
C       -0.80838700       0.34603400      -1.44735300
C       -0.82616100      -0.33014200      -0.10355400
C       -1.49026800      -1.63799900      -0.05320200
C       -1.35109200       0.68191700       0.87218000
O       -2.51730200       1.06047700       0.76484700
C       -0.24694900       1.66446300       1.14151200
H        0.83450500      -0.18471300       2.43287900
H        2.04555300      -1.14977300       1.57542400
H        0.38758900      -1.81808100       1.70410900
H        0.91302100      -1.56268300      -1.50423700
H        2.17781900      -0.22807400      -1.30060300
H        2.21565600      -1.69374400      -0.30932100
H        1.79750700       1.56272000       0.32135800
H       -0.35448200       2.40471100      -1.21211000
H        0.98832500       1.46736500      -2.00317900
H       -1.80434200       0.74193700      -1.68053400
H       -0.51393700      -0.32009400      -2.27682700
H       -0.85324700      -2.44802100      -0.42633700
H       -2.46277700      -1.56671300      -0.59009700
H       -1.75307800      -1.88667500       0.99921500
H        0.06819700       1.67319200       2.19013000
H       -0.56494100       2.71230300       0.90854300
27
Properties=species:S:1:pos:R:3 smiles=CC1(C)C2CCC1(C)C(=O)C2 config_type=start_22 pbc="F F F"
C       -0.03512800      -1.05425000      -1.64379100
C       -0.41503300      -0.51338500      -0.30498600
C       -1.16958600      -1.50053100       0.54512500
C       -1.15225500       0.82136700      -0.39970400
C       -0.11579600       1.63588600      -1.11555000
C        1.13987800       1.24761000      -0.33571400
C        0.77315700       0.04128300       0.47515600
C        1.83767800      -0.92053000       0.75370500
C        0.02860700       0.54709200       1.67470100
O       -0.06050300      -0.07167800       2.72687100
C       -1.15615700       1.23318400       1.05151200
H       -0.89837100      -1.00411900      -2.33553200
H        0.87990800      -0.62048900      -2.07261500
H        0.16910000      -2.14572200      -1.50703800
H       -1.62547500      -2.26826400      -0.12346000
H       -2.00276400      -1.04531200       1.10651700
H       -0.50172200      -2.06783000       1.23933700
H       -2.12187700       0.75622900      -0.87143600
H        0.01973300       1.35707100      -2.17582400
H       -0.29136700       2.71669300      -1.02237700
H        1.39023300       2.10427400       0.34070300
H        2.01019700       1.10464200      -0.99599000
H        2.64395300      -0.83904100      -0.01773400
H        1.43578800      -1.95818900       0.62319000
H        2.33120400      -0.85862800       1.73264100
H       -2.10021300       0.96078800       1.54281700
H       -1.01319100       2.34184800       1.10947800
27
Properties=species:S:1:pos:R:3 smiles=CC1(C)C2CCC1(C)C(=O)C2 config_type=start_23 pbc="F F F"
C       -1.54999700      -0.34661900      -1.19041800
C       -0.43670500       0.35720700      -0.46949300
C       -0.78166600       1.78872200      -0.22369400
C        0.90751000       0.16625900      -1.15120900
C        1.84306500       0.73668600      -0.11019600
C        1.17174000       0.38635400       1.21447400
C       -0.04776700      -0.38167800       0.80854600
C       -1.12303800      -0.47594300       1.80874100
C        0.36680800      -1.68396000       0.20247000
O       -0.31293500      -2.70097100       0.30294800
C        1.05599100      -1.32716500      -1.08207800
H       -1.26882600      -1.39360900      -1.39031900
H       -2.43946200      -0.35549500      -0.54661000
H       -1.72554200       0.18574500      -2.14273100
H       -1.44611600       2.11098800      -1.06564300
H        0.06861400       2.48266400      -0.23102200
H       -1.37036300       1.95488900       0.70791700
H        0.98687800       0.60448500      -2.13600500
H        2.78456500       0.15358600      -0.13920500
H        1.99366000       1.81700100      -0.22082600
H        1.79433100      -0.26218800       1.84528800
H        0.92549700       1.29018600       1.78861200
H       -0.70711500      -0.20087300       2.81108000
H       -2.04765000       0.08319700       1.57487100
H       -1.42325300      -1.55078400       1.89748500
H        0.64863200      -1.86527500      -1.94598800
H        2.13314500      -1.57340900      -0.91699400
27
Properties=species:S:1:pos:R:3 smiles=CC1(C)C2CCC1(C)C(=O)C2 config_type=start_24 pbc="F F F"
C       -1.57216500      -0.77929500      -0.92620100
C       -0.72477000      -0.18627500       0.15823900
C       -1.12499900      -0.61282900       1.53614300
C       -0.58908100       1.33049300       0.03137400
C        0.14481600       1.43207600      -1.27228100
C        0.95756800       0.14359200      -1.40345500
C        0.75956200      -0.45683000      -0.04922200
C        1.15550600      -1.85987800       0.12192800
C        1.38485500       0.49739100       0.92314900
O        2.58310400       0.75608000       0.80455900
C        0.37195900       1.57876000       1.17285500
H       -1.27541100      -1.81799400      -1.16137900
H       -1.45289400      -0.17118500      -1.84371500
H       -2.62513000      -0.74604500      -0.61353800
H       -1.63754500      -1.59448200       1.51208100
H       -1.81453500       0.12144000       1.99933000
H       -0.24138500      -0.73784100       2.20795400
H       -1.53074600       1.85934100       0.09726300
H       -0.50366700       1.60456900      -2.13926800
H        0.85324100       2.29424300      -1.22388000
H        2.02569900       0.39883900      -1.60099800
H        0.53382200      -0.43930600      -2.23356200
H        2.23315300      -1.95693200      -0.03988600
H        0.94286500      -2.14633200       1.18242000
H        0.53028400      -2.50255200      -0.50610900
H        0.81257800       2.58369000       1.16041300
H       -0.19668400       1.40726300       2.10578400
