14
Properties=species:S:1:pos:R:3 smiles=C(C)(C)C pbc="F F F"
C        0.00101600      -0.13319300      -0.35931700
C       -0.89819900      -1.06506500       0.40257700
C       -0.53717900       1.26178200      -0.21139100
C        1.44082600      -0.19831300       0.04255300
H       -0.06787700      -0.43131200      -1.43165100
H       -0.69823200      -1.10043700       1.48337300
H       -0.84244200      -2.06360000      -0.05158100
H       -1.93885100      -0.66546500       0.29333800
H        0.31974700       1.95239500      -0.00662000
H       -1.23660500       1.31964900       0.65774700
H       -1.04517700       1.59377400      -1.14058800
H        1.61256400      -0.37889200       1.11401100
H        1.88759400       0.80652800      -0.16951900
H        2.00281400      -0.89785000      -0.62293200
14
Properties=species:S:1:pos:R:3 smiles=C(C)(C)C pbc="F F F"
C        0.08380100       0.06679100      -0.32320300
C        0.22694400       1.39406200       0.37128300
C        1.12939200      -0.93737500       0.08186300
C       -1.32177400      -0.48528100      -0.21419200
H        0.25242900       0.26135800      -1.41342500
H        0.68989300       1.33462000       1.36734500
H       -0.80970500       1.77627300       0.55923800
H        0.72173400       2.16328300      -0.25086200
H        1.40714200      -0.88724900       1.14578900
H        0.70608100      -1.93908800      -0.18674900
H        2.06586400      -0.83167200      -0.52148900
H       -1.93701500       0.05627000       0.53581800
H       -1.33402600      -1.57727700       0.02872500
H       -1.88076000      -0.39471600      -1.18014100
14
Properties=species:S:1:pos:R:3 smiles=C(C)(C)C pbc="F F F"
C        0.02790900      -0.02122600      -0.33239200
C       -0.32464700       1.36161100       0.14636100
C        1.42328500      -0.44134600       0.01157100
C       -1.03418200      -0.96500700       0.15172200
H       -0.06208600       0.00469100      -1.44763800
H        0.23214700       2.12924000      -0.43650300
H       -0.21667500       1.50393800       1.22948700
H       -1.39993800       1.51729800      -0.12403000
H        1.56600000      -0.72221100       1.06050400
H        1.73279200      -1.23742400      -0.71142300
H        2.09461500       0.41980500      -0.23651500
H       -1.99536200      -0.61975100      -0.30792800
H       -1.17713100      -0.93432200       1.24124500
H       -0.86672400      -1.99529700      -0.24446000
14
Properties=species:S:1:pos:R:3 smiles=C(C)(C)C pbc="F F F"
C       -0.11906700      -0.12841800      -0.39119700
C        1.35575700      -0.35505500      -0.07345900
C       -0.34635700       1.35591000      -0.24916700
C       -0.96541400      -0.93404000       0.56372100
H       -0.27176400      -0.47697000      -1.42616900
H        1.59196100      -1.42503500      -0.17661100
H        1.50649700       0.02523900       0.94483600
H        1.91262400       0.23749900      -0.84173600
H       -0.02626400       1.65347600       0.77831100
H       -1.39014700       1.66403000      -0.39145200
H        0.26713500       1.86338600      -1.01707700
H       -0.52515400      -1.96151100       0.62593700
H       -1.97735300      -1.07929500       0.10719200
H       -1.01245300      -0.43921500       1.54687100
14
Properties=species:S:1:pos:R:3 smiles=C(C)(C)C pbc="F F F"
C        0.11675900       0.28262800      -0.32648600
C       -0.88779000      -0.81379600      -0.66218800
C        1.39362500      -0.39120900       0.08310000
C       -0.50897300       1.10947200       0.76143100
H        0.28342300       0.95197600      -1.20772900
H       -1.89307300      -0.60344500      -0.24966700
H       -0.56123900      -1.77921300      -0.21126400
H       -1.03053700      -0.91673500      -1.76133300
H        2.12937600      -0.37156100      -0.75781300
H        1.85169500       0.04170600       1.00047800
H        1.22387900      -1.46910400       0.31070500
H       -1.32065100       1.70877100       0.28421400
H       -0.99974400       0.44033400       1.49985200
H        0.20325000       1.81017600       1.23669800
14
Properties=species:S:1:pos:R:3 smiles=C(C)(C)C pbc="F F F"
C        0.06012600       0.12960500       0.41019400
C       -0.53647200      -1.24886200       0.17638200
C       -0.88196500       1.15004400      -0.16859400
C        1.41927700       0.13777100      -0.22074200
H        0.07749900       0.29501700       1.51035500
H       -0.66361800      -1.81811800       1.12464000
H        0.11205700      -1.87283500      -0.48476400
H       -1.53240700      -1.16899500      -0.31178000
H       -1.79906900       1.15002100       0.46552000
H       -1.12966900       0.81051300      -1.20747500
H       -0.48251700       2.17256900      -0.17092200
H        2.12664700      -0.19942200       0.58021300
H        1.51979600      -0.63264800      -1.02642300
H        1.71031500       1.09533900      -0.67660400
14
Properties=species:S:1:pos:R:3 smiles=C(C)(C)C pbc="F F F"
C       -0.04236800       0.04471700      -0.40022600
C        1.34093600      -0.48368800      -0.07318200
C       -0.17571500       1.37091600       0.33668100
C       -1.13596200      -0.91861400      -0.01239900
H       -0.12749800       0.18464800      -1.50691900
H        1.75205100      -0.04551400       0.85930800
H        1.32129400      -1.60037000      -0.02846300
H        2.01008300      -0.11691600      -0.89249200
H        0.78734700       1.71817400       0.75624400
H       -0.50246800       2.15126000      -0.39386000
H       -0.94617500       1.23120400       1.13463600
H       -1.55107700      -0.62972800       0.97391700
H       -0.76102700      -1.97033400       0.00595500
H       -1.96942200      -0.93575500      -0.75920000
14
Properties=species:S:1:pos:R:3 smiles=C(C)(C)C pbc="F F F"
C        0.04620800       0.06957700      -0.33704500
C       -0.04141200       1.38215700       0.43583100
C       -1.21341800      -0.74336800      -0.16292400
C        1.28661200      -0.70528800      -0.01960600
H        0.09537000       0.38886600      -1.41001900
H        0.92019200       1.90849900       0.36819100
H       -0.39285700       1.24071600       1.46350900
H       -0.80902100       1.99895500      -0.08631200
H       -1.06345500      -1.65002400       0.45896500
H       -1.65234700      -1.02888600      -1.15248600
H       -1.99263300      -0.07899400       0.28796900
H        1.88334400      -0.88189600      -0.95129400
H        1.97171800      -0.22017000       0.68428500
H        0.96169900      -1.68014400       0.42093600
14
Properties=species:S:1:pos:R:3 smiles=C(C)(C)C pbc="F F F"
C        0.05737800       0.09037100      -0.42082500
C       -0.83339300      -1.10227200      -0.09340500
C        1.40962600      -0.21712800       0.14573500
C       -0.59796700       1.30179700       0.18092500
H        0.15003200       0.21785400      -1.52906600
H       -1.54845100      -1.17033000      -0.94437000
H       -0.21044100      -2.00764900       0.02030100
H       -1.36933400      -0.90348500       0.86779900
H        1.37383500      -0.95923400       0.98425200
H        1.99341000       0.66254400       0.44765000
H        1.99240000      -0.73456700      -0.65731900
H       -0.18312300       1.52025700       1.17654300
H       -0.53951400       2.16599500      -0.51941100
H       -1.69445800       1.13584700       0.34119200
14
Properties=species:S:1:pos:R:3 smiles=C(C)(C)C pbc="F F F"
C        0.10740000      -0.04123600      -0.33678000
C        1.36076800      -0.37943500       0.42243400
C       -0.35000400       1.37974800      -0.11162700
C       -1.03554400      -0.96877800      -0.06386000
H        0.36622200      -0.11240700      -1.42430700
H        2.28996500      -0.06936500      -0.11796900
H        1.38338800       0.13870100       1.41355300
H        1.44369200      -1.48253000       0.53886600
H       -1.09585400       1.60091600      -0.91601600
H       -0.87545000       1.53595800       0.83672100
H        0.51962400       2.04311800      -0.23681600
H       -1.82360900      -0.45731400       0.53822500
H       -0.75879900      -1.89617400       0.46287000
H       -1.53179800      -1.29120200      -1.00529700
14
Properties=species:S:1:pos:R:3 smiles=C(C)(C)C pbc="F F F"
C        0.01571600      -0.05297200       0.39717700
C       -1.04279600      -0.98037300      -0.12489500
C       -0.36027000       1.34252700      -0.03785700
C        1.40225200      -0.38497500      -0.06220500
H        0.01176600      -0.13280500       1.51453300
H       -1.51653600      -0.55069300      -1.04377000
H       -0.66965600      -2.00222600      -0.30467900
H       -1.87063600      -1.01161800       0.62827500
H       -0.63992800       1.91945200       0.85738300
H       -1.21678500       1.36683200      -0.73600600
H        0.48367100       1.83175300      -0.55551100
H        1.48127700      -1.30628700      -0.65510200
H        1.80093800       0.47102100      -0.66440100
H        2.12098800      -0.50963600       0.78705800
14
Properties=species:S:1:pos:R:3 smiles=C(C)(C)C pbc="F F F"
C        0.01084600      -0.09162200       0.42703800
C       -0.72275800      -1.10559100      -0.40873700
C        1.43237900      -0.04821500      -0.05131200
C       -0.68170600       1.25814700       0.30934900
H       -0.00874900      -0.36124400       1.51244100
H       -0.93081800      -1.99544700       0.20054200
H       -1.62646700      -0.64203600      -0.85560700
H       -0.12066600      -1.45590100      -1.27941500
H        1.40781800       0.27192200      -1.11962900
H        2.10408100       0.55619100       0.57274700
H        1.80045700      -1.10470100      -0.03346000
H       -1.35765000       1.40839800       1.16398100
H        0.03111100       2.08230000       0.15893700
H       -1.33787800       1.22779800      -0.59687500
14
Properties=species:S:1:pos:R:3 smiles=C(C)(C)C pbc="F F F"
C        0.01121300      -0.15798600      -0.42916900
C       -1.39656500      -0.32714200       0.06918600
C        1.02772500      -0.90677800       0.41057800
C        0.36751900       1.31525200      -0.28368300
H        0.12918200      -0.52628700      -1.45961700
H       -1.91220100      -1.07456800      -0.56765700
H       -1.45525900      -0.69248300       1.10634100
H       -1.96213500       0.62503400      -0.07071500
H        0.97753100      -0.65287600       1.48020300
H        2.02676300      -0.63940500       0.04105800
H        0.86734700      -1.98687200       0.30177200
H        1.33743300       1.56139400      -0.74227400
H       -0.44654100       1.97438700      -0.67732800
H        0.42798700       1.48833000       0.82130600
14
Properties=species:S:1:pos:R:3 smiles=C(C)(C)C pbc="F F F"
C        0.00114800      -0.12421200       0.37414500
C        1.27286700      -0.71232300      -0.17330300
C       -0.02242000       1.39176200       0.26213300
C       -1.24044000      -0.65464800      -0.29615800
H       -0.01599000      -0.35894200       1.46931000
H        1.18636200      -1.05570400      -1.21541700
H        2.04449600       0.09590000      -0.14717800
H        1.67845700      -1.54471400       0.44828300
H       -0.71158100       1.67510400      -0.57232300
H        1.00125500       1.74889500       0.01000600
H       -0.38648000       1.86921100       1.20672300
H       -1.04221700      -1.24490500      -1.20179200
H       -1.93906600       0.15974700      -0.61744000
H       -1.82639100      -1.24517200       0.45301100
14
Properties=species:S:1:pos:R:3 smiles=C(C)(C)C pbc="F F F"
C        0.04120900      -0.09306100      -0.37454600
C        1.45425100       0.29329600      -0.04787700
C       -0.44506900      -1.27219700       0.46006300
C       -0.94773700       1.02072000      -0.19127500
H       -0.04391900      -0.43961900      -1.43588400
H        2.14350300      -0.11424600      -0.82368200
H        1.62026900       1.37636500       0.05161100
H        1.69480900      -0.16502000       0.93550000
H        0.20767400      -2.11960100       0.22555300
H       -1.49027200      -1.45553000       0.10419200
H       -0.48832100      -1.01098400       1.53900700
H       -1.41484100       1.32228700      -1.16340600
H       -0.51320800       1.91794700       0.26710600
H       -1.81834800       0.73964300       0.45363600
14
Properties=species:S:1:pos:R:3 smiles=C(C)(C)C pbc="F F F"
C        0.07013000      -0.10046900      -0.39475200
C       -1.37707200      -0.40540400      -0.12113300
C        1.02997200      -0.93442100       0.39479300
C        0.28059100       1.37671900      -0.08288100
H        0.27770900      -0.23815000      -1.48278400
H       -1.90573200      -0.61649200      -1.08449400
H       -1.86794300       0.41789700       0.45071600
H       -1.51783700      -1.33502100       0.48702000
H        1.31068600      -1.88174500      -0.12740100
H        1.96375200      -0.33445000       0.54319300
H        0.64141700      -1.17616100       1.41479600
H       -0.69487100       1.91873800      -0.04538700
H        0.96944300       1.80958900      -0.84254800
H        0.81975500       1.49937200       0.89086200
14
Properties=species:S:1:pos:R:3 smiles=C(C)(C)C pbc="F F F"
C       -0.08956000       0.01970000      -0.38965200
C       -0.25821900       1.32597000       0.36590600
C        1.34508900      -0.38985900      -0.24812400
C       -1.06444000      -1.01348100       0.09844900
H       -0.30603700       0.24037900      -1.45985600
H       -1.32471000       1.55487300       0.54593200
H        0.34624400       1.32021400       1.30741300
H        0.22805700       2.11532700      -0.26194400
H        1.51318700      -1.13604000       0.54043500
H        1.69354200      -0.77931300      -1.23287500
H        2.01392900       0.47321500      -0.00542900
H       -1.80727500      -0.48366800       0.74632700
H       -0.61578400      -1.79957700       0.72709500
H       -1.67402300      -1.44774000      -0.73367700
14
Properties=species:S:1:pos:R:3 smiles=C(C)(C)C pbc="F F F"
C        0.05846400       0.12227300      -0.35606600
C        1.34024500       0.34036100       0.38284600
C       -0.31031900      -1.35866000      -0.32449900
C       -1.07358000       0.99652800       0.12745000
H        0.20891800       0.34940800      -1.43967700
H        1.62394000      -0.58904500       0.93850500
H        2.15462000       0.62752400      -0.32087600
H        1.28183400       1.13074200       1.16160800
H        0.12945300      -1.88712600      -1.20055000
H        0.09648200      -1.81503300       0.60925100
H       -1.41889900      -1.48342100      -0.30204800
H       -1.87414300       0.29361500       0.47150000
H       -0.75023600       1.63999900       0.95741600
H       -1.46677900       1.63283400      -0.70485900
14
Properties=species:S:1:pos:R:3 smiles=C(C)(C)C pbc="F F F"
C        0.08011900       0.00883200      -0.31374400
C        0.00909100       1.43195500       0.14851800
C        1.09863300      -0.73070700       0.51970400
C       -1.23559300      -0.69938900      -0.38039000
H        0.49226500       0.00309800      -1.35495900
H        0.09056400       1.55745300       1.24520600
H       -0.86103900       1.98073800      -0.26030600
H        0.91090000       1.94577000      -0.27631700
H        1.06988700      -1.79429100       0.17282800
H        0.90622000      -0.68868700       1.59803500
H        2.08784200      -0.27867000       0.25439900
H       -1.96390300      -0.06561100      -0.90537400
H       -1.09928100      -1.59403000      -1.04035600
H       -1.58570400      -1.07646000       0.59275600
14
Properties=species:S:1:pos:R:3 smiles=C(C)(C)C pbc="F F F"
C        0.02834600      -0.04950900      -0.36814700
C        1.32395300       0.65478800      -0.09044000
C       -1.19739300       0.74290700      -0.02857700
C       -0.08726000      -1.37090900       0.37993100
H       -0.01232500      -0.30186500      -1.45527600
H        2.09452600       0.28252100      -0.81359600
H        1.74569500       0.41489200       0.91820300
H        1.24690500       1.73751900      -0.27240200
H       -1.81508800       0.26823600       0.77675200
H       -1.89994400       0.79771500      -0.89945800
H       -1.00018900       1.78167200       0.27540700
H       -1.06604900      -1.79403300       0.03732400
H        0.75261800      -2.01316800       0.07416300
H       -0.11379500      -1.15076600       1.46611500
14
Properties=species:S:1:pos:R:3 smiles=C(C)(C)C pbc="F F F"
C       -0.12189300       0.02648100       0.40696800
C       -0.19723900       1.43157900      -0.12124100
C       -1.09128500      -0.91852400      -0.24433200
C        1.28362300      -0.50409800       0.16561500
H       -0.31296800       0.05485700       1.49373900
H       -1.13197100       1.65450400      -0.66331800
H       -0.06867600       2.15560400       0.72067400
H        0.66517200       1.61109300      -0.80967100
H       -1.90205700      -0.42505700      -0.80028800
H       -1.54445300      -1.56965400       0.53159000
H       -0.55503700      -1.59618400      -0.93532300
H        1.89354500       0.23876000      -0.37757300
H        1.81435000      -0.73889900       1.10137100
H        1.26888800      -1.42046100      -0.46821000
14
Properties=species:S:1:pos:R:3 smiles=C(C)(C)C pbc="F F F"
C        0.00031100       0.05042100       0.45176400
C       -1.37071900      -0.42796900       0.06832400
C        0.35014900       1.39804900      -0.08914400
C        0.97986500      -0.93155900      -0.18705000
H        0.20442100      -0.03932800       1.54959500
H       -1.34446600      -1.09887700      -0.82815000
H       -2.10970400       0.36382400      -0.08835400
H       -1.69495500      -1.09755500       0.90565600
H        0.67669800       1.29200200      -1.14715100
H        1.23934500       1.78634000       0.46424000
H       -0.44980000       2.14241200      -0.04789900
H        0.62778600      -1.01537900      -1.24572200
H        0.86835300      -1.88823700       0.35216900
H        2.02271700      -0.53414500      -0.15827800
14
Properties=species:S:1:pos:R:3 smiles=C(C)(C)C pbc="F F F"
C        0.00983000      -0.09998100      -0.43510400
C       -0.94037700      -1.04206000       0.25252500
C        1.42177400      -0.19960400       0.10240500
C       -0.47046400       1.31077700      -0.11323300
H       -0.04120600      -0.25804800      -1.53407500
H       -1.24070200      -0.67379400       1.26310100
H       -0.55628000      -2.06475500       0.36396900
H       -1.86671000      -1.09057900      -0.35882000
H        2.14001200      -0.04993500      -0.74390800
H        1.63177500       0.59424400       0.85563300
H        1.62870200      -1.19852400       0.50636200
H       -1.55777800       1.31952500      -0.36064800
H       -0.27748800       1.46872600       0.96840700
H        0.11891100       1.98400700      -0.76661300
14
Properties=species:S:1:pos:R:3 smiles=C(C)(C)C pbc="F F F"
C        0.04039800       0.18165500       0.31745800
C       -0.89347300       0.93307300      -0.59575200
C        1.44294300       0.12369900      -0.20184800
C       -0.51826900      -1.20561800       0.57943900
H        0.05468600       0.70780700       1.30105500
H       -0.81319100       2.04354100      -0.48130400
H       -0.66910500       0.74450500      -1.66238100
H       -1.92587900       0.62657700      -0.30625800
H        1.45849500      -0.47528700      -1.13252200
H        1.76870200       1.16655000      -0.40137000
H        2.09142500      -0.29462000       0.59715200
H        0.02575400      -1.72341900       1.38999100
H       -1.55944400      -1.04880800       0.95967900
H       -0.50304000      -1.77965600      -0.36333800
14
Properties=species:S:1:pos:R:3 smiles=C(C)(C)C pbc="F F F"
C        0.07781100      -0.00784000      -0.33152800
C        1.32156200      -0.53512000       0.32426400
C       -1.13484500      -0.87213500      -0.02998400
C       -0.21679000       1.42297500      -0.02838100
H        0.23859500      -0.10086100      -1.43522100
H        1.40907500      -1.61103900       0.04158100
H        1.31237800      -0.48049900       1.42097400
H        2.18774800      -0.03102100      -0.14689000
H       -1.84437400      -0.74862700      -0.88523500
H       -0.81033800      -1.93734800       0.02795000
H       -1.58578300      -0.58066300       0.94188300
H       -0.12016900       2.06578700      -0.93954500
H       -1.27475100       1.53829500       0.30411000
H        0.43988100       1.87809800       0.73602300
