20
Properties=species:S:1:pos:R:3 smiles=CCC(C)CC config_type=start_0 pbc="F F F"
C        2.49860600       0.50089200      -0.02773600
C        1.14816000       0.27091300       0.63886200
C        0.07679500      -0.06461700      -0.39416500
C       -0.21838200      -1.52589400      -0.27711200
C       -1.09406100       0.84432700      -0.24587100
C       -2.40138300       0.16956500       0.02156400
H        2.48942300       0.03852100      -1.04799700
H        3.28543300       0.05064400       0.62027100
H        2.66424000       1.60497400      -0.10745500
H        1.21693600      -0.52658300       1.40989300
H        0.86066100       1.19537100       1.18858700
H        0.55820800       0.09897700      -1.39114600
H       -0.38567600      -1.85327900       0.77947300
H        0.71941400      -2.06088600      -0.57964700
H       -0.99182600      -1.90178100      -0.95696600
H       -0.89362500       1.56109400       0.59116900
H       -1.22008700       1.46040600      -1.17328300
H       -2.30036600      -0.76429700       0.58715400
H       -2.97631000       0.05260700      -0.93205500
H       -3.03616100       0.84904700       0.64555200
20
Properties=species:S:1:pos:R:3 smiles=CCC(C)CC config_type=start_1 pbc="F F F"
C        2.11387600      -0.44283300       0.21337200
C        1.25117900       0.08620600      -0.89039800
C       -0.15011600       0.41787800      -0.46677600
C       -0.24525500       1.61694500       0.42169400
C       -0.73513500      -0.83422700       0.14982100
C       -2.24291800      -0.77582300       0.25456500
H        3.04127400      -0.84730900      -0.26692400
H        1.68179000      -1.29159100       0.76294900
H        2.42387800       0.35095200       0.94071200
H        1.17690300      -0.73014100      -1.65291200
H        1.77913100       0.91457900      -1.38412200
H       -0.72959600       0.64604500      -1.39611900
H        0.39905000       2.41223100      -0.03042300
H        0.06955600       1.45327400       1.45961700
H       -1.28613500       2.00937900       0.39667500
H       -0.29290700      -1.03423300       1.14809100
H       -0.46862900      -1.66396600      -0.55234000
H       -2.71506600      -1.62786100      -0.26703600
H       -2.54569000       0.21417600      -0.16475100
H       -2.52519000      -0.87368200       1.32430700
20
Properties=species:S:1:pos:R:3 smiles=CCC(C)CC config_type=start_2 pbc="F F F"
C        1.71450800      -1.09063500       0.45582900
C        1.37551100       0.28356200       0.00182100
C       -0.06395700       0.58398500      -0.20353100
C       -0.25272700       2.05034700       0.18051900
C       -1.02179300      -0.21386100       0.62206200
C       -1.70777900      -1.32065700      -0.17029600
H        2.38659600      -1.06717000       1.35108900
H        2.28394200      -1.65788700      -0.32479500
H        0.87161200      -1.73229400       0.72494600
H        1.88283900       0.44765900      -0.98352500
H        1.86967500       1.02240600       0.68356600
H       -0.36063800       0.52671400      -1.28164600
H       -0.19693500       2.06292600       1.29731900
H        0.61321300       2.65962000      -0.17844500
H       -1.22512200       2.44318500      -0.14980800
H       -0.58291000      -0.60081500       1.56756600
H       -1.86396300       0.44522600       0.95735700
H       -1.01982800      -1.85296100      -0.83968500
H       -2.62376300      -0.94880600      -0.68935600
H       -2.07848100      -2.04054100       0.59798500
20
Properties=species:S:1:pos:R:3 smiles=CCC(C)CC config_type=start_3 pbc="F F F"
C       -0.78035500       1.72523600      -0.04696100
C       -0.55604000       0.64460600      -1.06027600
C       -0.23965800      -0.68972000      -0.46052700
C       -1.45014700      -1.33177300       0.20586200
C        0.84153100      -0.64692400       0.57860500
C        2.09383900       0.05157500       0.12905200
H       -1.68307300       2.29992800      -0.37005600
H       -0.96516400       1.35175000       0.96925700
H        0.04646800       2.47564200      -0.03296000
H       -1.44601000       0.50157900      -1.71600400
H        0.28143100       0.90826600      -1.74813200
H        0.07181000      -1.37318000      -1.28594000
H       -1.04570700      -2.13976800       0.84387800
H       -1.97023000      -0.53570000       0.77720900
H       -2.08806600      -1.81499400      -0.55532900
H        0.47214900      -0.26181900       1.55225100
H        1.13319700      -1.71232100       0.76183100
H        2.03518500       1.14418200       0.13007900
H        2.88351200      -0.24067600       0.86796100
H        2.36533000      -0.35588900      -0.86776500
20
Properties=species:S:1:pos:R:3 smiles=CCC(C)CC config_type=start_4 pbc="F F F"
C       -1.65863100       1.55319800      -0.29786100
C       -1.47506500       0.18375900       0.28377500
C       -0.06126000      -0.23194200       0.48853900
C       -0.08945800      -1.68022800       0.96690900
C        0.83113700      -0.16360100      -0.69807800
C        2.22452900       0.32807700      -0.31543700
H       -2.75321800       1.68755200      -0.47863800
H       -1.40314000       2.30894500       0.48012100
H       -1.07389200       1.75111900      -1.20522300
H       -2.04966100      -0.60276600      -0.24718300
H       -1.93197000       0.23091500       1.30727600
H        0.39608600       0.37317100       1.30468000
H        0.55806800      -2.33135400       0.32646600
H        0.35491100      -1.77118300       1.99094900
H       -1.10136800      -2.11480500       0.91372000
H        1.01658600      -1.17172600      -1.15217600
H        0.46110800       0.46407600      -1.52972700
H        2.74379400      -0.49295400       0.24199900
H        2.81208100       0.42695200      -1.26374900
H        2.19936200       1.25279400       0.27561600
20
Properties=species:S:1:pos:R:3 smiles=CCC(C)CC config_type=start_5 pbc="F F F"
C       -1.87780100       1.31086100       0.39812400
C       -1.04653500       0.12457100       0.87313400
C       -0.07714400      -0.34415900      -0.17247300
C       -0.43672800      -1.79384600      -0.48391500
C        1.35468900      -0.39231500       0.32903700
C        2.08473800       0.90491100       0.18458100
H       -2.87402900       0.97550200       0.01534800
H       -2.06322800       2.03550300       1.23120500
H       -1.36901800       1.86228000      -0.41016300
H       -0.53807800       0.46169700       1.79553000
H       -1.78754100      -0.65486100       1.16960200
H       -0.13169800       0.24306600      -1.12124200
H        0.34403100      -2.23796100      -1.13402200
H       -1.43185200      -1.89447500      -0.94127000
H       -0.37216900      -2.33370100       0.48629500
H        1.35288600      -0.78687900       1.36733900
H        1.88715100      -1.15047100      -0.29986400
H        2.74991300       1.00786200       1.07982600
H        2.78812100       0.87685900      -0.68598300
H        1.44429100       1.78555700       0.03983600
20
Properties=species:S:1:pos:R:3 smiles=CCC(C)CC config_type=start_6 pbc="F F F"
C       -1.92152200      -0.93296100       0.74624500
C       -1.37928400       0.41830800       0.37737300
C       -0.09567800       0.31874700      -0.43918200
C        0.29226400       1.76124100      -0.72925300
C        0.98417700      -0.34020400       0.37563000
C        1.99392600      -1.07206700      -0.46561200
H       -1.60551500      -1.13139100       1.79923000
H       -3.03090800      -0.87418200       0.75257200
H       -1.54324200      -1.74156500       0.09146000
H       -2.10726800       1.03062500      -0.21412300
H       -1.15082800       1.04618300       1.27586100
H       -0.27841000      -0.26733600      -1.35116400
H       -0.33735400       2.11216000      -1.56408100
H        1.37221500       1.85195500      -0.90505700
H        0.04142200       2.38857300       0.16336100
H        1.49042700       0.38589600       1.03307800
H        0.49496500      -1.08940000       1.04650700
H        1.62802700      -2.06685900      -0.81073300
H        2.28512500      -0.51155200      -1.38057600
H        2.86746100      -1.28617100       0.19846500
20
Properties=species:S:1:pos:R:3 smiles=CCC(C)CC config_type=start_7 pbc="F F F"
C        1.86586700      -0.67758400      -0.01795000
C        0.85668200      -0.14093600       0.95159500
C       -0.25864400       0.62832600       0.31471800
C        0.27322900       1.85484500      -0.36810400
C       -1.08308600      -0.15902600      -0.65405500
C       -1.79625800      -1.33155100      -0.04158700
H        2.45844700      -1.45132000       0.53282100
H        2.61274200       0.10859200      -0.29021400
H        1.43270800      -1.19006100      -0.88761400
H        0.47476800      -0.92857600       1.61449400
H        1.39613000       0.58293000       1.61410600
H       -0.94418200       0.93061200       1.14647900
H       -0.25983000       2.75657400       0.01765100
H        1.36805500       1.94890100      -0.22291000
H        0.10747400       1.81560000      -1.46733800
H       -1.88636500       0.53316000      -1.01559700
H       -0.52957000      -0.50544600      -1.54367400
H       -1.13796600      -2.18969800       0.15125000
H       -2.30836600      -1.00672000       0.89941600
H       -2.64183500      -1.57862200      -0.73348600
20
Properties=species:S:1:pos:R:3 smiles=CCC(C)CC config_type=start_8 pbc="F F F"
C       -2.34475400      -0.12041600       0.26819200
C       -1.24762600      -0.57472700      -0.64732100
C        0.06222500       0.11208500      -0.43570900
C       -0.05432800       1.42130200       0.30003300
C        1.08639500      -0.74846000       0.26500200
C        2.50225800      -0.31503500      -0.01926700
H       -2.69484700       0.90650100      -0.00301700
H       -2.09275600      -0.17007600       1.33752500
H       -3.19400800      -0.83587200       0.12458500
H       -1.11410100      -1.67166600      -0.54280400
H       -1.61906100      -0.40142000      -1.68940000
H        0.48873800       0.34852300      -1.44335500
H        0.80697500       2.07718700       0.11714500
H       -0.15104900       1.17153500       1.38710400
H       -0.95997700       1.96999500      -0.05775900
H        0.93631400      -1.78333100      -0.13441100
H        0.88482700      -0.74804800       1.35147400
H        2.60418700       0.78823800      -0.12454900
H        3.15539800      -0.58877600       0.84599400
H        2.94519200      -0.83754000      -0.89946200
20
Properties=species:S:1:pos:R:3 smiles=CCC(C)CC config_type=start_9 pbc="F F F"
C        2.19608200      -0.89942500      -0.08805100
C        1.07783700      -0.09607300      -0.74102500
C       -0.00161400       0.28042800       0.23406500
C        0.15363100       1.76665600       0.53743600
C       -1.39521300       0.10873300      -0.31528200
C       -2.12152400      -1.05945100       0.31492300
H        2.74731400      -1.38213000      -0.93497400
H        1.81040300      -1.64724200       0.62819100
H        2.95276000      -0.22640300       0.38939600
H        1.58990600       0.81230900      -1.14911900
H        0.62922400      -0.62881100      -1.58988500
H        0.04661900      -0.28283800       1.18719500
H        1.21712900       1.98341200       0.78770800
H       -0.54941900       2.04342200       1.33670500
H       -0.11297300       2.35561600      -0.36883500
H       -1.32263200      -0.09395000      -1.39920800
H       -2.03098500       1.00751700      -0.15956900
H       -2.31586500      -0.89306800       1.40094800
H       -3.07503800      -1.17145400      -0.26032100
H       -1.49564200      -1.97724800       0.18970300
20
Properties=species:S:1:pos:R:3 smiles=CCC(C)CC config_type=start_10 pbc="F F F"
C        2.19468200      -0.70863900       0.11071600
C        0.88645800      -0.32022000      -0.57306700
C        0.03155200       0.45998400       0.35800800
C       -0.03970200       1.87393200      -0.21269100
C       -1.31666500      -0.05997800       0.65784200
C       -1.84488600      -1.14191400      -0.22054400
H        2.01103000      -1.17236600       1.09500600
H        2.76999000      -1.44407800      -0.47848100
H        2.84489300       0.18776100       0.26055500
H        1.21712800       0.26165900      -1.47285000
H        0.45995100      -1.24740500      -0.96340300
H        0.56498500       0.57913500       1.33654300
H        0.91359400       2.38984000       0.04762300
H       -0.20694900       1.83262500      -1.31745000
H       -0.84013200       2.38868400       0.33113100
H       -2.04076800       0.79123400       0.57576700
H       -1.42900700      -0.42230400       1.71191800
H       -2.82207000      -1.46275400       0.22724700
H       -2.11098900      -0.72820300      -1.21749500
H       -1.24309500      -2.05699100      -0.25637500
20
Properties=species:S:1:pos:R:3 smiles=CCC(C)CC config_type=start_11 pbc="F F F"
C       -2.10988000      -0.26850900       0.21536900
C       -1.12926500      -0.22587700      -0.91731500
C        0.23009800       0.28467300      -0.51453900
C        0.08282400       1.74052900      -0.14329200
C        0.76569800      -0.56079200       0.60184100
C        2.20108400      -0.97073500       0.41134100
H       -1.70843200      -0.82007400       1.08805500
H       -2.37604800       0.74643500       0.58487500
H       -3.01358600      -0.79266400      -0.11868700
H       -1.00952800      -1.27628200      -1.28199200
H       -1.54512600       0.37283400      -1.73904900
H        0.86519900       0.20555700      -1.43348400
H       -0.76558100       2.21032300      -0.69914500
H       -0.05574000       1.86752000       0.94134100
H        1.00398700       2.25687200      -0.50513800
H        0.18289300      -1.49987400       0.76591400
H        0.62811700       0.03370500       1.54037600
H        2.32974700      -2.08127200       0.39156100
H        2.65990000      -0.58278700      -0.50924600
H        2.76364000      -0.63958200       1.32121400
20
Properties=species:S:1:pos:R:3 smiles=CCC(C)CC config_type=start_12 pbc="F F F"
C       -1.74704100       0.86703800      -0.04716100
C       -0.89861800       0.11819800       0.93741300
C        0.19328100      -0.69102800       0.31717000
C       -0.35753100      -1.84719700      -0.45126700
C        1.14186900       0.10427500      -0.53313200
C        1.85070100       1.18954900       0.23375000
H       -2.42857400       0.19657900      -0.62412500
H       -2.43296800       1.51005500       0.56111900
H       -1.18048800       1.56489100      -0.68962500
H       -1.57745600      -0.59892600       1.46202300
H       -0.52796400       0.83016200       1.70643300
H        0.80475500      -1.11248300       1.15364200
H        0.45133000      -2.59081900      -0.66139800
H       -1.14943300      -2.35671800       0.15366300
H       -0.80605100      -1.58422900      -1.42121600
H        1.84847300      -0.63764000      -0.98629200
H        0.65155200       0.59449600      -1.40016300
H        1.27557000       2.14481600       0.15457800
H        2.82935500       1.38559100      -0.27159800
H        2.05923900       0.91338900       1.29181700
20
Properties=species:S:1:pos:R:3 smiles=CCC(C)CC config_type=start_13 pbc="F F F"
C        2.51116400      -0.20968000       0.30989100
C        1.11072000      -0.22299600       0.84565500
C        0.06852700      -0.05906600      -0.24819500
C       -0.10976700       1.41756500      -0.47421100
C       -1.17564900      -0.74125900       0.23114900
C       -2.38771800      -0.50272900      -0.61946000
H        3.18200100      -0.41191500       1.18211900
H        2.74987000       0.81311700      -0.02554800
H        2.68104700      -0.88561100      -0.53763400
H        0.92921900      -1.12691800       1.46976900
H        1.00273900       0.63953200       1.54177700
H        0.51447000      -0.54698000      -1.14984700
H        0.26478400       1.75108900      -1.47263400
H       -1.16050700       1.75883800      -0.39636100
H        0.44508800       2.04179500       0.26546700
H       -0.98691800      -1.84030600       0.21992600
H       -1.38919500      -0.42303400       1.25959400
H       -2.76723600       0.53240700      -0.58752900
H       -3.20451000      -1.11577100      -0.15731700
H       -2.27813200      -0.86807800      -1.65661300
20
Properties=species:S:1:pos:R:3 smiles=CCC(C)CC config_type=start_14 pbc="F F F"
C        1.77983200      -1.13864700       0.40119000
C        1.28840700       0.27600300       0.35115600
C        0.01647700       0.44818300      -0.43941800
C       -0.11221900       1.94477400      -0.69989800
C       -1.21177000       0.03600300       0.31613400
C       -1.70299600      -1.34140100      -0.02330700
H        1.03053300      -1.82528900      -0.01684400
H        2.70634500      -1.29813200      -0.20578600
H        2.03305000      -1.35792600       1.46916500
H        1.15623200       0.74754700       1.33793700
H        2.06955200       0.87570000      -0.17990500
H        0.14319900      -0.03765900      -1.41414400
H        0.85346900       2.39715000      -0.99668800
H       -0.93660500       2.18205800      -1.39760200
H       -0.39829600       2.40683100       0.27907000
H       -1.01919900       0.07740800       1.40208500
H       -2.05356200       0.74141600       0.09920300
H       -2.80860700      -1.38594300       0.14689600
H       -1.55547500      -1.62251000      -1.08221600
H       -1.27836700      -2.12556700       0.65297200
20
Properties=species:S:1:pos:R:3 smiles=CCC(C)CC config_type=start_15 pbc="F F F"
C        2.18273000      -0.87990800       0.13847900
C        1.10073700       0.01216400       0.70725500
C        0.12446400       0.40787000      -0.39581600
C       -0.39211300       1.78282000      -0.14960400
C       -0.89852800      -0.63705600      -0.66579800
C       -2.06896700      -0.67037900       0.25289600
H        2.14125500      -0.78341100      -0.97638900
H        2.02062600      -1.94113300       0.38312600
H        3.20365300      -0.51888500       0.42043800
H        0.60056900      -0.40488300       1.58881200
H        1.59773600       0.96069900       1.03364500
H        0.76853800       0.46436500      -1.31314500
H       -0.14295400       2.48948800      -0.98107700
H       -1.46615100       1.87339300       0.01868000
H        0.11990200       2.20965600       0.74941500
H       -0.38546100      -1.62852400      -0.56689800
H       -1.26577700      -0.57491400      -1.70820500
H       -2.78046300      -1.42682900      -0.16768300
H       -2.64125100       0.25951000       0.33772600
H       -1.81854300      -0.99404400       1.29414200
20
Properties=species:S:1:pos:R:3 smiles=CCC(C)CC config_type=start_16 pbc="F F F"
C       -1.65763400       0.90335900      -0.56279500
C       -1.10827900      -0.47125500      -0.74621400
C       -0.06143800      -0.88109700       0.23588000
C       -0.25262600      -0.34395800       1.62230000
C        1.34989900      -0.64165900      -0.24463600
C        1.68804900       0.80338700      -0.42039300
H       -1.80060100       1.21565000       0.48088000
H       -1.08593300       1.70154400      -1.06317000
H       -2.67148100       0.91946600      -1.03877200
H       -1.95835600      -1.20023300      -0.75253200
H       -0.63753100      -0.49788300      -1.76263500
H       -0.14817300      -1.99524100       0.33100800
H        0.63861500      -0.68485900       2.21118500
H       -1.13095800      -0.82083400       2.09784500
H       -0.24113600       0.75411300       1.69579700
H        1.52978700      -1.20416300      -1.16821300
H        2.03119100      -1.05664700       0.53314700
H        1.47077900       1.39764000       0.48338700
H        1.25099600       1.24636900      -1.35069200
H        2.79482900       0.85630100      -0.58137700
20
Properties=species:S:1:pos:R:3 smiles=CCC(C)CC config_type=start_17 pbc="F F F"
C       -2.31960100      -0.29271400       0.39245400
C       -0.93557100      -0.67835200      -0.02285800
C        0.09921400       0.38350200       0.19738200
C       -0.33244900       1.60750500      -0.59818100
C        1.40086900      -0.06342900      -0.38919000
C        2.21492000      -0.95780800       0.49055200
H       -2.40949800      -0.16166600       1.49210200
H       -2.98590800      -1.14375800       0.13835200
H       -2.71410400       0.61760400      -0.07165000
H       -0.92710100      -0.98652500      -1.07536500
H       -0.64464900      -1.55875600       0.57836100
H        0.14604800       0.66126900       1.26188900
H        0.44164500       1.90824400      -1.34984400
H       -0.47591800       2.49464600       0.04579100
H       -1.24275200       1.42678000      -1.19689800
H        1.21398600      -0.54291300      -1.35713500
H        2.00760500       0.85797600      -0.57671800
H        1.80851700      -1.97653000       0.60462200
H        3.20131300      -1.08609600      -0.02645300
H        2.45343500      -0.50898000       1.46278800
20
Properties=species:S:1:pos:R:3 smiles=CCC(C)CC config_type=start_18 pbc="F F F"
C       -1.86257400      -0.71924100       0.43485800
C       -1.17273100      -0.21487800      -0.80700100
C        0.15719100       0.42199900      -0.52816500
C       -0.13401500       1.86320800      -0.12508800
C        0.93799800      -0.21799200       0.57736600
C        2.08035400      -1.08287800       0.07898200
H       -2.93335700      -0.89784000       0.16492900
H       -1.40653800      -1.68854700       0.74738400
H       -1.82152400       0.04278800       1.25338300
H       -1.85732700       0.54464700      -1.26521900
H       -1.10983200      -1.05977400      -1.52680000
H        0.75919600       0.43405600      -1.46593000
H       -0.79689700       1.79209400       0.77187200
H        0.80382400       2.34729700       0.24478700
H       -0.59211400       2.38198000      -0.97462000
H        0.33344100      -0.75591500       1.32251000
H        1.44140300       0.59985000       1.15684500
H        2.53020400      -1.52826900       1.00000000
H        1.78103000      -1.81768500      -0.67448400
H        2.86226700      -0.44489700      -0.38560900
20
Properties=species:S:1:pos:R:3 smiles=CCC(C)CC config_type=start_19 pbc="F F F"
C       -2.33603200      -0.44068900      -0.20934500
C       -1.05640300      -0.97803600       0.35610100
C        0.05056300       0.01979200       0.45455900
C       -0.34466200       1.42342900       0.06739700
C        1.19235100      -0.45451300      -0.39934100
C        2.50039700       0.16001800       0.07186500
H       -2.79985900      -1.15461000      -0.93443200
H       -2.22970300       0.51176900      -0.74899700
H       -3.05566000      -0.35971400       0.64334500
H       -1.19781500      -1.40269400       1.38301500
H       -0.76022200      -1.86227300      -0.26417900
H        0.46489900       0.11094300       1.49156700
H       -1.27952300       1.73667800       0.56910800
H       -0.41276600       1.43811200      -1.03371200
H        0.44481000       2.11529300       0.45825700
H        1.28445300      -1.56051100      -0.25592800
H        1.06497900      -0.20293100      -1.48164100
H        2.68383300      -0.13190000       1.11520300
H        3.32169700      -0.24163300      -0.55448100
H        2.46466300       1.27347000      -0.04290300
20
Properties=species:S:1:pos:R:3 smiles=CCC(C)CC config_type=start_20 pbc="F F F"
C        2.45670600       0.31793700       0.30138500
C        1.11489300       0.51653100      -0.39424300
C        0.06969300      -0.45363300       0.13366700
C       -0.41692200      -1.29144600      -0.99949900
C       -0.97564400       0.26090100       0.91236100
C       -2.22495600       0.61283800       0.19523200
H        2.31333300       0.36082000       1.40828300
H        3.14551800       1.08187200      -0.08232800
H        2.80466200      -0.71715900       0.05524300
H        0.78273200       1.56799400      -0.20174600
H        1.30181700       0.36678300      -1.47722400
H        0.60872700      -1.12847200       0.84845000
H       -0.29352900      -0.71946600      -1.94265400
H       -1.41807500      -1.72412000      -0.86648400
H        0.27214300      -2.16855800      -1.11236000
H       -1.21951800      -0.29829200       1.85152200
H       -0.51403400       1.21777100       1.26844800
H       -3.08922100       0.50496800       0.89998400
H       -2.24588200       1.68799500      -0.11733600
H       -2.47244200       0.00473600      -0.68070200
20
Properties=species:S:1:pos:R:3 smiles=CCC(C)CC config_type=start_21 pbc="F F F"
C       -2.31690600      -0.33620800      -0.59695700
C       -1.13739500       0.58589500      -0.46661300
C        0.04676100      -0.15415700       0.14362800
C       -0.17409000      -0.34619700       1.62248300
C        1.32681600       0.64755900      -0.00804200
C        2.33737700      -0.20431400      -0.73243800
H       -3.14910100       0.04170500       0.05030000
H       -2.05653000      -1.38593200      -0.37156300
H       -2.76107400      -0.33214900      -1.62475200
H       -0.86047200       0.91143700      -1.48276400
H       -1.36108900       1.44338500       0.19331300
H        0.10485600      -1.13574900      -0.38378300
H       -0.91398500       0.41826800       1.94152800
H        0.75775300      -0.15052200       2.21063800
H       -0.47173500      -1.37563300       1.86025700
H        1.09386500       1.52678300      -0.62379200
H        1.70334200       1.02062200       0.96210600
H        2.09081100      -0.25217400      -1.80256300
H        3.33301500       0.29246800      -0.62474100
H        2.40777700      -1.21508900      -0.26624400
20
Properties=species:S:1:pos:R:3 smiles=CCC(C)CC config_type=start_22 pbc="F F F"
C        2.24142800       0.85016100      -0.27445800
C        1.46644800      -0.23647900       0.40900400
C        0.00677600      -0.26095900       0.05748300
C       -0.48316400      -1.68494000       0.27300400
C       -0.84312600       0.63097700       0.91430300
C       -2.21123000       0.76127900       0.25318700
H        1.91681900       1.07676700      -1.29534500
H        2.24370900       1.75854500       0.37729000
H        3.30698200       0.52079300      -0.35260700
H        1.62660200      -0.11746300       1.50484000
H        1.92850400      -1.20893000       0.10459800
H       -0.16910500       0.03700200      -0.99344600
H        0.33278600      -2.36335000       0.60391200
H       -1.28027500      -1.74026200       1.04293700
H       -0.88931600      -2.12415100      -0.65460300
H       -1.04869800       0.08143400       1.86700200
H       -0.42042400       1.62162800       1.10400900
H       -2.18796900       1.38442600      -0.64891500
H       -2.92854800       1.24014000       0.95272300
H       -2.60819800      -0.22661900      -0.02618000
20
Properties=species:S:1:pos:R:3 smiles=CCC(C)CC config_type=start_23 pbc="F F F"
C        2.32733600      -0.66755200       0.22619400
C        1.30333400       0.07662300      -0.62004900
C        0.07984000       0.26041600       0.21572900
C       -0.56387700       1.59447600      -0.06859000
C       -0.89072300      -0.84990300      -0.16786600
C       -2.17929900      -0.53169300       0.55645600
H        2.81879300      -0.00605200       0.96550700
H        1.85085900      -1.49023900       0.78615400
H        3.07993100      -1.11085500      -0.44865100
H        1.13889600      -0.52702900      -1.54041400
H        1.69734000       1.06644000      -0.88979000
H        0.31448200       0.21606000       1.28648300
H       -0.94804500       1.58807400      -1.10346900
H       -1.33765200       1.86420900       0.68348200
H        0.21196600       2.39354200       0.00641100
H       -0.45789000      -1.80356100       0.16678300
H       -1.01028000      -0.81760100      -1.27473500
H       -2.59162300       0.38347400       0.06412700
H       -1.89945900      -0.32715300       1.61706400
H       -2.94392800      -1.31167800       0.44684600
20
Properties=species:S:1:pos:R:3 smiles=CCC(C)CC config_type=start_24 pbc="F F F"
C       -2.13625700       1.21562000      -0.41070100
C       -1.20058300       0.53460300       0.58153500
C       -0.08105400      -0.16286100      -0.17929900
C       -0.20119700      -1.63671200       0.10109800
C        1.21073100       0.43663900       0.28610800
C        2.42765700      -0.25119900      -0.27387400
H       -2.74533500       1.92472000       0.19336400
H       -1.53118400       1.72279900      -1.17716600
H       -2.74420600       0.45467800      -0.93039200
H       -1.83914700      -0.19841400       1.13453300
H       -0.81629000       1.23709100       1.33456700
H       -0.25069200      -0.03299700      -1.27400700
H       -1.22550800      -1.92729000      -0.24674800
H       -0.20746700      -1.79292500       1.19673500
H        0.55432300      -2.24784300      -0.42762900
H        1.23924300       0.40983100       1.38491900
H        1.21408800       1.49849500      -0.04918600
H        2.22803100      -0.82104100      -1.20248400
H        2.92039900      -0.89368600       0.49658900
H        3.18444700       0.53049400      -0.53796300
