15
Properties=species:S:1:pos:R:3 smiles=C1CCCC1 config_type=start_0 pbc="F F F"
C       -0.31545100       1.22015500       0.11347300
C        1.03596100       0.65522000      -0.30767500
C        0.97617200      -0.71666700       0.33361200
C       -0.37566000      -1.19156700      -0.18940800
C       -1.22942800       0.00432500       0.11006300
H       -0.22932300       1.64747100       1.13799100
H       -0.67713800       1.99020800      -0.61233200
H        0.98338600       0.50152400      -1.39586200
H        1.88008100       1.26149500       0.03820500
H        0.87762900      -0.57847800       1.41789800
H        1.79391300      -1.37976800       0.02376600
H       -0.28638400      -1.28095700      -1.29784500
H       -0.70422400      -2.12309900       0.28976500
H       -1.96197100       0.11024200      -0.72166300
H       -1.76756400      -0.12010300       1.06001100
15
Properties=species:S:1:pos:R:3 smiles=C1CCCC1 config_type=start_1 pbc="F F F"
C        0.55731400       1.09688300      -0.25495500
C       -0.83541400       0.89572500       0.32327800
C       -1.13404600      -0.49611600      -0.16382400
C        0.13291800      -1.25732600       0.16827000
C        1.22152600      -0.23249200      -0.00126200
H        0.40279100       1.30173500      -1.33860300
H        1.09111300       1.93496900       0.23457500
H       -0.81813600       0.94477100       1.42137000
H       -1.54499400       1.60069500      -0.14643500
H       -1.20805300      -0.47439700      -1.26096000
H       -2.02459000      -0.87572000       0.35207400
H        0.09573900      -1.66744100       1.20869700
H        0.28009800      -2.12162800      -0.52798600
H        1.87296600      -0.43878200      -0.88740400
H        1.91077000      -0.21087700       0.87316600
15
Properties=species:S:1:pos:R:3 smiles=C1CCCC1 config_type=start_2 pbc="F F F"
C        0.15574600      -0.98148600      -0.73333000
C        1.20706600      -0.39225900       0.19594500
C        0.64221400       1.01447800       0.35334700
C       -0.86638700       0.83602000       0.37226000
C       -1.13134400      -0.57694300      -0.06675500
H        0.22273100      -0.37777600      -1.67111800
H        0.26467100      -2.05745300      -0.89091200
H        2.18075800      -0.37683400      -0.34250600
H        1.25983700      -0.90729700       1.16451700
H        1.01685200       1.52810600       1.24944400
H        0.93814100       1.55055000      -0.57757600
H       -1.30719800       1.53110300      -0.38009300
H       -1.24153100       1.05338900       1.38095500
H       -1.94309000      -0.59507000      -0.82790400
H       -1.39846800      -1.24852900       0.77372400
15
Properties=species:S:1:pos:R:3 smiles=C1CCCC1 config_type=start_3 pbc="F F F"
C       -0.54704900      -0.99814600      -0.51283900
C       -1.21411500       0.30793300      -0.17635000
C        0.00077900       1.22691400      -0.07997900
C        0.86578400       0.36098900       0.83431800
C        0.88137900      -0.90621900      -0.01068500
H       -1.00843000      -1.87493000      -0.04808200
H       -0.55039700      -1.11424300      -1.60383900
H       -1.88918200       0.68439400      -0.95191000
H       -1.66047000       0.28189500       0.84058300
H        0.47819600       1.28792900      -1.07620500
H       -0.25078900       2.19473600       0.36489800
H        0.28382000       0.25638200       1.76042000
H        1.86826500       0.78474900       0.97853700
H        1.19083900      -1.79524800       0.54563100
H        1.55136900      -0.69713500      -0.86449700
15
Properties=species:S:1:pos:R:3 smiles=C1CCCC1 config_type=start_4 pbc="F F F"
C        1.20715100      -0.22692600      -0.23137000
C        0.61453500       1.13481200       0.11031000
C       -0.84489800       0.84695000       0.34043400
C       -1.14331100      -0.48897500      -0.29301300
C        0.13287900      -1.24203500       0.02369800
H        1.44133600      -0.28441600      -1.32281600
H        2.09973200      -0.33971800       0.40187000
H        0.81021300       1.78801400      -0.75252000
H        1.11650200       1.59167300       0.99348000
H       -0.95831600       0.70083100       1.44383700
H       -1.46833500       1.66677700      -0.03172600
H       -1.95119900      -1.00201200       0.24751800
H       -1.32071600      -0.43507500      -1.37959300
H        0.17052700      -2.12235800      -0.62840200
H        0.09390000      -1.58754100       1.07829300
15
Properties=species:S:1:pos:R:3 smiles=C1CCCC1 config_type=start_5 pbc="F F F"
C        0.02759000      -1.25794700      -0.14433700
C        1.19241300      -0.27907300      -0.23026400
C        0.63578500       1.08448500       0.11109200
C       -0.74880100       0.75258200       0.65431400
C       -1.13664400      -0.32253900      -0.35681700
H        0.08886300      -2.06087700      -0.89089000
H       -0.02357600      -1.65859700       0.89789600
H        2.00757600      -0.52306000       0.46014100
H        1.49773500      -0.29670700      -1.30539900
H        1.25070600       1.63728800       0.84421300
H        0.43959900       1.69411800      -0.80822600
H       -1.43402000       1.60610000       0.63635000
H       -0.65928900       0.23984400       1.62060000
H       -2.11546500      -0.75467700      -0.14235500
H       -1.02247200       0.13906200      -1.34631800
15
Properties=species:S:1:pos:R:3 smiles=C1CCCC1 config_type=start_6 pbc="F F F"
C       -0.09472900       1.23050500       0.02815600
C        1.18672700       0.42588100       0.17267800
C        0.75240200      -0.91896300      -0.34436600
C       -0.58958900      -1.02717700       0.37543700
C       -1.21230800       0.22983600      -0.22271100
H       -0.34815400       1.79354100       0.94813300
H       -0.01489900       1.97135300      -0.80423800
H        2.01587100       0.87333000      -0.39255900
H        1.37889000       0.31439400       1.25035700
H        0.49004000      -0.81947600      -1.42423000
H        1.43014800      -1.74139100      -0.11931300
H       -0.40967400      -0.90753400       1.45578800
H       -1.13542400      -1.93984900       0.13025800
H       -1.29164400       0.00701300      -1.30616800
H       -2.15765800       0.50853600       0.25277700
15
Properties=species:S:1:pos:R:3 smiles=C1CCCC1 config_type=start_7 pbc="F F F"
C        0.79085300       0.98826500      -0.15456300
C        1.15074400      -0.46907600       0.11846400
C       -0.14404100      -1.19322200       0.37219700
C       -1.19875500      -0.09141000       0.39779900
C       -0.63207800       0.83315300      -0.63276500
H        0.85734800       1.59630900       0.77121500
H        1.40436900       1.38316500      -0.97535100
H        1.77641100      -0.52512300       1.02339700
H        1.68089900      -0.85094100      -0.79070000
H       -0.14865200      -1.81086700       1.27682400
H       -0.37585000      -1.81261600      -0.52613000
H       -1.28138400       0.32774900       1.40744100
H       -2.17473300      -0.44693700       0.02530200
H       -0.59601900       0.26164000      -1.59367400
H       -1.10911200       1.80991100      -0.71945700
15
Properties=species:S:1:pos:R:3 smiles=C1CCCC1 config_type=start_8 pbc="F F F"
C        0.30793000       1.14238100       0.30401800
C        1.25900400       0.02148900       0.00427400
C        0.36967300      -0.99855500      -0.65155500
C       -0.88026900      -0.88197000       0.21543200
C       -1.09150100       0.62587200       0.12153800
H        0.52045900       2.01947300      -0.35605300
H        0.46046400       1.45345300       1.35255000
H        2.10121600       0.34724600      -0.63198200
H        1.66061000      -0.40773300       0.95416800
H        0.05470200      -0.62796500      -1.65747400
H        0.78487300      -2.01367300      -0.66445500
H       -1.73022400      -1.44610800      -0.19530700
H       -0.63208200      -1.11595000       1.25783200
H       -1.80136600       1.00009700       0.87518300
H       -1.38348900       0.88194600      -0.92816800
15
Properties=species:S:1:pos:R:3 smiles=C1CCCC1 config_type=start_9 pbc="F F F"
C       -0.81038500      -0.79319500       0.54488100
C       -1.08561300       0.61095700       0.01573500
C        0.29092800       1.22752100       0.17584200
C        1.18406300       0.12178500      -0.37470300
C        0.38431000      -1.14726500      -0.33268200
H       -1.66144000      -1.47625600       0.38114100
H       -0.53963700      -0.67208200       1.60378000
H       -1.86019200       1.11913600       0.60330200
H       -1.29436800       0.53835000      -1.06330900
H        0.40358500       2.17477100      -0.36800200
H        0.54884100       1.37193300       1.24481000
H        1.46226000       0.33680700      -1.42229900
H        2.08563900       0.00127300       0.27553200
H        0.93498200      -2.01639700       0.05198300
H       -0.04297300      -1.39734000      -1.33601100
15
Properties=species:S:1:pos:R:3 smiles=C1CCCC1 config_type=start_10 pbc="F F F"
C        1.26937800      -0.05913900      -0.01598500
C        0.40582200       1.15465100       0.27456700
C       -0.97558900       0.60485600       0.58001300
C       -1.03699200      -0.53182600      -0.40521800
C        0.32962800      -1.19860200      -0.32194500
H        1.95516400       0.14255300      -0.87339600
H        1.85444600      -0.29375600       0.89695100
H        0.76970400       1.75184500       1.12396800
H        0.30080700       1.73949500      -0.66407500
H       -1.73275900       1.36626100       0.27147600
H       -1.11103600       0.30111200       1.62304200
H       -1.84738300      -1.24663200      -0.21439900
H       -1.07265200      -0.06745800      -1.42230300
H        0.52299400      -1.67156400      -1.30263500
H        0.36846800      -1.99179500       0.44994000
15
Properties=species:S:1:pos:R:3 smiles=C1CCCC1 config_type=start_11 pbc="F F F"
C        0.31757000      -1.21358400       0.15819200
C        1.20085000      -0.09100600      -0.37692500
C        0.44791700       1.16426300       0.01967600
C       -0.94049000       0.71619100       0.44128500
C       -1.04219500      -0.65140700      -0.21771800
H        0.53995800      -2.17344900      -0.31236800
H        0.37371500      -1.19270000       1.25384600
H        1.17565400      -0.21704700      -1.48890900
H        2.22045100      -0.12876900       0.02748000
H        0.28312200       1.83626200      -0.85991900
H        0.97022000       1.70933600       0.83592800
H       -1.73226400       1.40431600       0.12485200
H       -0.87760600       0.54711200       1.52691200
H       -1.88305200      -1.22537400       0.17545400
H       -1.05384900      -0.48414400      -1.30778600
15
Properties=species:S:1:pos:R:3 smiles=C1CCCC1 config_type=start_12 pbc="F F F"
C        0.08962900       1.26048300       0.01280700
C       -1.17372800       0.43709300      -0.06000300
C       -0.74189400      -0.99231100      -0.29783200
C        0.62254200      -1.00611500       0.34900400
C        1.24762600       0.29864000      -0.10697400
H        0.08519800       2.03393800      -0.79275000
H        0.16984200       1.72817800       1.01991500
H       -1.74502900       0.45774600       0.89718100
H       -1.82907800       0.72484600      -0.90405700
H       -1.37391500      -1.69639600       0.27754300
H       -0.71486700      -1.25290300      -1.36962100
H        0.45860500      -0.89592100       1.44663700
H        1.20552900      -1.88975800       0.07030300
H        1.62426000       0.23743500      -1.14292600
H        2.07528000       0.55504500       0.60077500
15
Properties=species:S:1:pos:R:3 smiles=C1CCCC1 config_type=start_13 pbc="F F F"
C        0.21308500      -1.15676600      -0.46243800
C       -0.99749900      -0.66753100       0.30825900
C       -0.96119800       0.80666000      -0.08154900
C        0.45419700       1.14127800       0.29566000
C        1.23387800      -0.09700800      -0.08107800
H       -0.04249500      -1.12792700      -1.53458800
H        0.51190400      -2.16379100      -0.13698200
H       -1.93031800      -1.16398800       0.03029700
H       -0.73649100      -0.72867900       1.37813800
H       -1.00107000       0.81781200      -1.18279900
H       -1.72969900       1.39175000       0.42446700
H        0.84568300       2.05455300      -0.20537100
H        0.48375400       1.25753400       1.40658700
H        1.87921700       0.14274200      -0.94125100
H        1.77705100      -0.50663800       0.78264800
15
Properties=species:S:1:pos:R:3 smiles=C1CCCC1 config_type=start_14 pbc="F F F"
C       -1.00945500      -0.70049400      -0.18874800
C       -0.96066800       0.72244200       0.35867000
C        0.33844000       1.16962500      -0.30420500
C        1.23486500      -0.05178900      -0.16253500
C        0.35034700      -1.18401700       0.30050200
H       -1.84513000      -1.28358200       0.20843000
H       -1.02050500      -0.59891600      -1.30201100
H       -0.81374500       0.66006500       1.45244000
H       -1.81942300       1.32716800       0.04981300
H        0.10534100       1.30841700      -1.36911800
H        0.74476300       2.05782000       0.19998600
H        1.73404100      -0.30408400      -1.12036100
H        2.00284100       0.19850700       0.58927000
H        0.33090100      -1.15882300       1.40504500
H        0.62738900      -2.16233800      -0.11717900
15
Properties=species:S:1:pos:R:3 smiles=C1CCCC1 config_type=start_15 pbc="F F F"
C       -0.80293700       0.88759800      -0.41469200
C       -1.13503400      -0.50640700       0.10115900
C        0.20354100      -1.16597900       0.41307900
C        1.20807100      -0.24669700      -0.25943500
C        0.59638100       1.09261000       0.13073200
H       -0.78276600       0.90490200      -1.52349600
H       -1.50539700       1.64125200      -0.03885900
H       -1.72053600      -0.44228300       1.04487600
H       -1.69188900      -1.04820100      -0.68591700
H        0.25008000      -2.19407400       0.02985000
H        0.38284000      -1.17098400       1.51716400
H        2.23142500      -0.36737400       0.10811400
H        1.12091900      -0.41828000      -1.34899300
H        1.11968300       1.95049000      -0.29973100
H        0.52561800       1.08342700       1.22614900
15
Properties=species:S:1:pos:R:3 smiles=C1CCCC1 config_type=start_16 pbc="F F F"
C        1.23674300      -0.16521000      -0.00748800
C        0.24404100      -0.94661600       0.81428200
C       -1.10429000      -0.56762100       0.26555400
C       -0.91058600       0.67216600      -0.56080900
C        0.53103500       1.10059200      -0.39952900
H        2.18597600       0.01661400       0.51325700
H        1.45273800      -0.75388200      -0.93439600
H        0.31647500      -0.73858300       1.89991000
H        0.46586500      -2.02327400       0.65984600
H       -1.48339200      -1.41411700      -0.36181800
H       -1.87557600      -0.44447200       1.06745000
H       -1.62894400       1.47700900      -0.32151300
H       -1.02751800       0.38242800      -1.63587400
H        0.93884900       1.50402400      -1.36086500
H        0.65858600       1.90094200       0.36199100
15
Properties=species:S:1:pos:R:3 smiles=C1CCCC1 config_type=start_17 pbc="F F F"
C       -1.23094700      -0.30710800       0.03960800
C       -0.04551600      -1.24821100       0.11216600
C        1.15753000      -0.40919100      -0.30766000
C        0.74467300       0.91250400       0.32580000
C       -0.63439900       1.06047400      -0.26934400
H       -1.74472000      -0.19141200       1.01474800
H       -1.95647500      -0.62839300      -0.73340200
H       -0.14800100      -2.13126800      -0.52711800
H        0.12204400      -1.48662100       1.18986500
H        1.23252900      -0.32171200      -1.40473200
H        2.09470600      -0.75690500       0.15050900
H        0.68620000       0.71421600       1.41763000
H        1.42831800       1.73239400       0.09857600
H       -0.55823900       1.18254200      -1.35959200
H       -1.14770200       1.87869000       0.25294700
15
Properties=species:S:1:pos:R:3 smiles=C1CCCC1 config_type=start_18 pbc="F F F"
C       -0.95273300       0.74734400      -0.29820900
C        0.41567300       1.17324700       0.18421500
C        1.26231100      -0.08147100      -0.00713200
C        0.26950200      -1.12655400       0.48587500
C       -0.94141200      -0.76383600      -0.35720000
H       -1.08084500       1.17194200      -1.32284300
H       -1.78024900       1.15306000       0.29767300
H        0.35442100       1.32481100       1.28823400
H        0.81915000       2.04392600      -0.35020100
H        2.18350300      -0.05952900       0.59834000
H        1.41732000      -0.27307500      -1.07556200
H        0.01697800      -0.86958500       1.53917800
H        0.61091400      -2.15394200       0.34078900
H       -0.72304500      -1.09931000      -1.38638900
H       -1.87148700      -1.18703000       0.06323000
15
Properties=species:S:1:pos:R:3 smiles=C1CCCC1 config_type=start_19 pbc="F F F"
C        1.24862500      -0.15904200      -0.00048500
C        0.46944900       1.12929900      -0.12682200
C       -0.99120100       0.78166000      -0.06152200
C       -0.94453000      -0.70927300      -0.37061000
C        0.19375700      -1.08696200       0.57318200
H        2.14901500      -0.08248300       0.61316200
H        1.49384800      -0.51822600      -1.02892400
H        0.74755500       1.75911400       0.75102300
H        0.64640500       1.63536700      -1.08467000
H       -1.37055800       0.89281100       0.97826300
H       -1.61931700       1.29777200      -0.79640400
H       -0.54441500      -0.85190800      -1.38746800
H       -1.87641500      -1.22816700      -0.15275800
H       -0.06188500      -0.71376700       1.57416600
H        0.45966700      -2.14619500       0.51986600
15
Properties=species:S:1:pos:R:3 smiles=C1CCCC1 config_type=start_20 pbc="F F F"
C        0.51273600       1.12162500       0.22182300
C       -0.74710800       0.82780800      -0.58087000
C       -1.17144200      -0.47158600       0.05035300
C        0.14098900      -1.20476700       0.24639900
C        1.24323000      -0.20304900       0.02436800
H        1.07998400       1.97928500      -0.15914000
H        0.25207800       1.17833700       1.28752400
H       -1.49509300       1.62379200      -0.52133100
H       -0.37867800       0.63216900      -1.61928700
H       -1.88177300      -1.05314600      -0.55673200
H       -1.63842200      -0.24892200       1.03927200
H        0.24066100      -2.07622000      -0.41353300
H        0.18767700      -1.54012400       1.29906400
H        1.56633500      -0.24745100      -1.04618700
H        2.08882500      -0.31775200       0.72827700
15
Properties=species:S:1:pos:R:3 smiles=C1CCCC1 config_type=start_21 pbc="F F F"
C        0.62501300       1.04877000      -0.13374900
C        1.20495800      -0.35713000      -0.01699800
C        0.01253400      -1.08459800       0.59327100
C       -1.03313800      -0.57872100      -0.39476400
C       -0.88436000       0.89791000      -0.06659200
H        0.91108300       1.51808200      -1.09819300
H        1.02180900       1.63504200       0.72915600
H        1.35051300      -0.78443000      -1.02902000
H        2.09613000      -0.39756700       0.62190800
H        0.11246800      -2.16363600       0.61165600
H       -0.12231400      -0.60286400       1.58712000
H       -0.63744900      -0.70277600      -1.42258200
H       -2.02696000      -0.97673500      -0.22355000
H       -1.42366700       1.55313300      -0.75425300
H       -1.20662100       0.99552000       0.99659000
15
Properties=species:S:1:pos:R:3 smiles=C1CCCC1 config_type=start_22 pbc="F F F"
C       -1.06955700       0.59187400       0.29592200
C       -0.91404600      -0.85460000      -0.09673200
C        0.55505600      -1.13423500      -0.24398100
C        1.20413600       0.16487800       0.11456900
C        0.20127100       1.24480700      -0.19139500
H       -1.94110900       1.07139800      -0.16831900
H       -1.08877400       0.73968100       1.39281800
H       -1.40784100      -1.07888800      -1.07030600
H       -1.35362600      -1.51560000       0.68605900
H        0.83436500      -1.51805400      -1.24059800
H        0.88887900      -1.90774100       0.48441000
H        2.18297600       0.33184600      -0.35198700
H        1.35468500       0.20400100       1.22342600
H        0.41120400       2.14188900       0.41714100
H        0.14238100       1.51874400      -1.25102700
15
Properties=species:S:1:pos:R:3 smiles=C1CCCC1 config_type=start_23 pbc="F F F"
C        0.21562100       1.17801200      -0.34979400
C        1.24988700       0.09833800      -0.05121600
C        0.41462800      -1.17745700       0.00080000
C       -0.79443800      -0.59812100       0.72911400
C       -1.12919600       0.46728100      -0.30924700
H        0.17749100       1.94204100       0.45489100
H        0.36703600       1.63198300      -1.34119200
H        2.00011000      -0.00657200      -0.84093200
H        1.63757400       0.29338800       0.95288700
H        0.14833500      -1.48521100      -1.03579200
H        0.89576800      -1.98652300       0.55159400
H       -0.39897100      -0.10224300       1.63142000
H       -1.59005700      -1.31833100       0.89697100
H       -1.95863400       1.11240500      -0.01990700
H       -1.23515400      -0.04899000      -1.26959700
15
Properties=species:S:1:pos:R:3 smiles=C1CCCC1 config_type=start_24 pbc="F F F"
C       -1.08461400      -0.51050700       0.28728100
C        0.19098700      -1.24856900      -0.10937400
C        1.22759700      -0.19702900       0.27480900
C        0.55573800       1.12475400      -0.01436300
C       -0.85832000       0.79233300      -0.47480400
H       -1.08418600      -0.29641100       1.36997100
H       -1.99230300      -1.02390700      -0.06888900
H        0.32339600      -2.18831900       0.44534900
H        0.14694400      -1.36645500      -1.20660300
H        2.18266100      -0.33481000      -0.25078100
H        1.39471000      -0.30587000       1.37083100
H        0.43160000       1.70400200       0.93545400
H        1.02850400       1.70170000      -0.81779600
H       -0.89612100       0.57304000      -1.57066800
H       -1.56659300       1.57604900      -0.17041700
