14
Properties=species:S:1:pos:R:3
C      0.109452    0.003074   -0.425333
C      1.388462   -0.049163    0.368050
C     -0.731200   -1.236136   -0.282280
C     -0.670635    1.196671    0.108857
H      0.369256    0.185971   -1.480612
H      1.134873    0.127979    1.442277
H      1.971938    0.858907    0.072147
H      1.965231   -0.971359    0.228700
H     -1.530587   -1.056631    0.474970
H     -0.146496   -2.131069   -0.000225
H     -1.300475   -1.423714   -1.228987
H     -1.508140    0.828408    0.752776
H     -0.017162    1.873579    0.714053
H     -1.034517    1.793483   -0.744392
