32
Coordinates from ORCA-job orca6
  C   -4.11139453647349      0.92399282871976      0.77725323825626
  C   -4.10740595954525     -0.18712731625008     -0.27846011149422
  C   -3.17922555901597     -1.37892267647115      0.02927460666783
  C   -1.73332186285979     -1.25987815693892     -0.47635842177536
  C   -0.90512077490079     -0.10319054823827      0.09338595185429
  C   0.56589300057611     -0.15101693208621     -0.33149562164493
  C   1.39524352873865      1.01419626641306      0.21926220690544
  C   2.85645053096577      1.04167500210290     -0.24884140018278
  C   3.70929338779744     -0.13894632219099      0.23041970867409
  C   5.17321632368550     -0.03492365755371     -0.20259488845471
  H   -4.81801989076880      1.72882540981599      0.50398991608943
  H   -3.11722674681730      1.38241375685512      0.90851713207342
  H   -4.42302510481865      0.52747684074861      1.76147500051747
  H   -5.14289236706594     -0.56155041861393     -0.38347889205157
  H   -3.84265533729557      0.23489736615338     -1.26819020802514
  H   -3.17273514493002     -1.56242519630631      1.12234080320654
  H   -3.61014999702615     -2.28983777791507     -0.42541901516180
  H   -1.21072040250583     -2.21028080593319     -0.24971510359331
  H   -1.74573955061782     -1.17982824017655     -1.58164968162948
  H   -0.96754411090328     -0.11335945316924      1.19993749869357
  H   -1.33642988621185      0.86240580898940     -0.22900910306811
  H   1.00243927628831     -1.11361199843173     -0.00371727666068
  H   0.62734856501795     -0.14971775797290     -1.43852628677425
  H   1.36622869905176      0.99026689608349      1.32707953586143
  H   0.91047351555988      1.96477017127880     -0.07710700912953
  H   2.88428726629860      1.08421548716056     -1.35640041986156
  H   3.32471901656388      1.98132797130853      0.10380137882966
  H   3.65242390594256     -0.20070194668478      1.33518987817907
  H   3.28482053585605     -1.08662533798181     -0.15047186222743
  H   5.26198664058568     -0.00525760594312     -1.30506908968270
  H   5.64277959273477      0.88561007829360      0.19211624872480
  H   5.76600344609359     -0.89487373506527      0.15864128688425
