32
Coordinates from ORCA-job orca7
  C   4.82383302528274     -0.72209343328706      0.57631592909806
  C   3.64044720487116     -0.07653328903826     -0.14842209385574
  C   2.38136192622271      0.01181052711662      0.72177583836417
  C   1.18991819194453      0.72559465797589      0.06718636442544
  C   0.59134317945535     -0.01033484325473     -1.13748779834206
  C   -0.57237864613819      0.72785277709155     -1.81777648746079
  C   -1.78045294518787      1.04353533712526     -0.92296625071452
  C   -2.42524493205541     -0.18245309434931     -0.26859590276836
  C   -3.68998212235427      0.14745674575503      0.53075481281094
  C   -4.32223743987919     -1.07658767462674      1.19710720115583
  H   5.71754149849936     -0.77545819520234     -0.07164572286441
  H   4.58018423430684     -1.75189593456041      0.89705855421334
  H   5.09910896318762     -0.15055343282809      1.48236117953711
  H   3.42428915762763     -0.64882334363506     -1.06969724931969
  H   3.92070202089985      0.94217914275154     -0.48120198370141
  H   2.07342944122353     -1.00994125667139      1.02172898692571
  H   2.63908501818463      0.53809893129392      1.66134714779654
  H   0.40576476090630      0.86858598439686      0.83334528340581
  H   1.49909819064559      1.74343948136888     -0.24418969079247
  H   1.37684756947470     -0.18031181583580     -1.89614377518595
  H   0.26253817436580     -1.01767370395499     -0.81677444259531
  H   -0.19164003712199      1.67626058621333     -2.24374973574424
  H   -0.91656179347286      0.12309140765286     -2.67907486700949
  H   -2.54188410078504      1.56477456481672     -1.53525700231910
  H   -1.48898053292962      1.76329306512818     -0.13442875214335
  H   -2.66952145096967     -0.92845782651459     -1.05113899753184
  H   -1.69753989540189     -0.67661024402641      0.40399857146349
  H   -4.42978117342655      0.62808457426510     -0.13920394143085
  H   -3.44365519478036      0.90302352327391      1.30193058796165
  H   -5.22956638452263     -0.80600664573415      1.76694670610048
  H   -4.61015771189541     -1.83466765106586      0.44506916356077
  H   -3.61590719617741     -1.55867792164045      1.89934736696025
