13
Properties=species:S:1:pos:R:3 Coordinates=T from=T ORCA-job=T orca0=T pbc="F F F"
C        0.07220999       0.04170825      -0.25221972
C        0.42112873       1.22241996       0.59725557
C       -1.44378247      -0.21360284      -0.27895936
C        0.84806349      -1.21623203       0.17239658
H        0.37882201       0.26985512      -1.30122281
H       -0.26628982       2.07263882       0.68274663
H        1.42964500       1.33413733       1.01215529
H       -1.81570893      -0.47153301       0.73003526
H       -1.99412952       0.68126866      -0.62273204
H       -1.69409295      -1.04766843      -0.95955427
H        0.56975460      -1.51858583       1.19896635
H        1.93928841      -1.03885148       0.15709584
H        0.63142246      -2.06351452      -0.50336833
13
Properties=species:S:1:pos:R:3 Coordinates=T from=T ORCA-job=T orca1=T pbc="F F F"
C       -0.04076065       0.08899198       0.44003109
C        1.41869872       0.22771331       0.13663834
C       -0.60615866      -1.23695977      -0.12412453
C       -0.84688741       1.28953384      -0.07572280
H       -0.16036900       0.04062044       1.54214218
H        1.75705467       0.79000393      -0.74265536
H        2.15778871      -0.38399493       0.66756693
H       -0.53773882      -1.25270055      -1.22800151
H       -1.66923660      -1.36115469       0.15669214
H       -0.04676119      -2.10720115       0.26271871
H       -1.91882595       1.19003782       0.17533286
H       -0.47934355       2.23499569       0.36119684
H       -0.76450827       1.37198409      -1.17673188
13
Properties=species:S:1:pos:R:3 Coordinates=T from=T ORCA-job=T orca2=T pbc="F F F"
C       -0.03179132       0.08108062      -0.36785719
C        0.99392438      -0.99744885      -0.20839270
C        0.26811954       1.29011746       0.52839215
C       -1.45827612      -0.45917879      -0.10742873
H       -0.01248876       0.42072932      -1.42437259
H        1.55577016      -1.10349599       0.72777424
H        1.07062483      -1.80479933      -0.94665287
H       -0.47835881       2.09244590       0.38293131
H        1.26717859       1.70942488       0.31247066
H        0.24720346       0.99984011       1.59650003
H       -1.68870931      -1.31521627      -0.76641034
H       -1.56159972      -0.79983434       0.93929035
H       -2.21523592       0.32730429      -0.28926532
13
Properties=species:S:1:pos:R:3 Coordinates=T from=T ORCA-job=T orca3=T pbc="F F F"
C       -0.05401488       0.06170403      -0.51301211
C       -1.41934621      -0.01314664       0.09308591
C        0.74292499      -1.23428680      -0.28396435
C        0.72303160       1.29342294      -0.02047267
H       -0.17205465       0.17524483      -1.61733307
H       -1.96633296      -0.96325846       0.12047803
H       -1.95924200       0.89913552       0.37291508
H        1.72060076      -1.19538824      -0.79707391
H        0.19477834      -2.11415424      -0.66724069
H        0.92791643      -1.39417319       0.79437992
H        0.16281473       2.22567128      -0.21932207
H        1.70270486       1.37264765      -0.52491895
H        0.90355998       1.23256032       1.06885586
13
Properties=species:S:1:pos:R:3 Coordinates=T from=T ORCA-job=T orca4=T pbc="F F F"
C        0.08724922      -0.02480234       0.53699442
C        0.23570860       1.41475266       0.15893890
C       -1.33474913      -0.54253555       0.25852306
C        1.14985851      -0.90615350      -0.13884704
H        0.24853379      -0.10978078       1.63836700
H        1.21402190       1.82553301      -0.11710128
H       -0.59205035       2.11803243       0.31138561
H       -1.45352315      -1.58486518       0.60652065
H       -1.55482662      -0.51647512      -0.82481623
H       -2.09331785       0.07460442       0.77311180
H        1.07666813      -1.95361754       0.20587386
H        1.02471197      -0.89854467      -1.23808601
H        2.17021597      -0.54585084       0.08780427
13
Properties=species:S:1:pos:R:3 Coordinates=T from=T ORCA-job=T orca5=T pbc="F F F"
C       -0.00611031       0.03807053       0.38335880
C       -0.14722718       1.41242301      -0.19320955
C        1.44061290      -0.48872725       0.22868691
C       -1.01257952      -0.94380959      -0.23322229
H       -0.20617533       0.09917916       1.47290611
H        0.26772799       2.28224907       0.32970649
H       -0.49844649       1.55334800      -1.22278600
H        1.54930190      -1.48042436       0.70694252
H        2.16982436       0.19751838       0.69471627
H        1.70621624      -0.59216569      -0.83953231
H       -0.83752590      -1.05015643      -1.32110161
H       -0.92231818      -1.94717404       0.22103199
H       -2.05098747      -0.59431279      -0.09003233
13
Properties=species:S:1:pos:R:3 Coordinates=T from=T ORCA-job=T orca6=T pbc="F F F"
C        0.08800888      -0.05124038      -0.32871905
C       -1.09802052      -0.90751947      -0.01604526
C        1.38875388      -0.64538106       0.23514757
C       -0.11738924       1.39918527       0.14286819
H        0.20231447      -0.01309312      -1.43839648
H       -2.11319108      -0.49855867      -0.08668883
H       -0.98902982      -1.98756817       0.13900301
H        1.55145558      -1.67452121      -0.13344884
H        2.26370103      -0.03795902      -0.05984561
H        1.35513083      -0.68255425       1.34014021
H       -1.03982934       1.83254178      -0.28474618
H        0.73087875       2.03953997      -0.16168549
H       -0.20266244       1.44334833       1.24482275
13
Properties=species:S:1:pos:R:3 Coordinates=T from=T ORCA-job=T orca7=T pbc="F F F"
C        0.00378337       0.16569833      -0.42079547
C       -1.00133721       0.98773966       0.32150956
C        1.41171012       0.30551851       0.18434325
C       -0.42213667      -1.30753773      -0.51863583
H        0.06499683       0.55669360      -1.46466570
H       -0.73044112       1.97297991       0.71885758
H       -2.05917386       0.69932284       0.34373236
H        1.72376528       1.36475471       0.23267346
H        2.15908416      -0.24242874      -0.41783093
H        1.43578867      -0.10060932       1.21228060
H        0.29502504      -1.89014801      -1.12484469
H       -1.41866584      -1.40418216      -0.98679676
H       -0.47331077      -1.76775362       0.48566458
13
Properties=species:S:1:pos:R:3 Coordinates=T from=T ORCA-job=T orca8=T pbc="F F F"
C       -0.00188092      -0.00128131       0.27377755
C        1.22204651      -0.69904298      -0.22936445
C       -1.27963335      -0.80448760      -0.02724222
C       -0.10255465       1.43539255      -0.26310424
H        0.07589537       0.07238008       1.38482971
H        2.12107114      -0.13379220      -0.50143770
H        1.29986897      -1.79216996      -0.18163794
H       -1.21636277      -1.82815102       0.38415447
H       -1.44102299      -0.88786470      -1.11799618
H       -2.16759079      -0.31704713       0.41471662
H       -0.97592262       1.95951684       0.16562628
H        0.80114717       2.02101432      -0.01241320
H       -0.21027908       1.43439812      -1.36405370
13
Properties=species:S:1:pos:R:3 Coordinates=T from=T ORCA-job=T orca9=T pbc="F F F"
C        0.01162967       0.09087409       0.33786054
C       -1.02120734       0.93081663      -0.34735547
C        1.36136620       0.13942685      -0.39233154
C       -0.47200179      -1.36927295       0.50469401
H        0.15831434       0.49357378       1.36150050
H       -1.93684463       1.22700477       0.17812459
H       -0.96291348       1.12705050      -1.42504307
H        1.73422384       1.17584146      -0.47654350
H        1.26617157      -0.26982226      -1.41612143
H        2.12482748      -0.45838645       0.13800415
H       -0.62906273      -1.84443733      -0.48101572
H       -1.42703797      -1.41268781       1.05803251
H        0.27414184      -1.96860229       1.06025545
