13
Properties=species:S:1:pos:R:3 Coordinates=T from=T ORCA-job=T orca0=T pbc="F F F"
C       -0.04618095       0.01607125       0.30002864
C        0.58591452       1.36089809       0.12457804
C       -1.48219563      -0.16082549      -0.08207834
C        0.83499153      -1.19146448       0.37257290
H       -0.10198885       2.17943841       0.40918520
H        0.87507118       1.54899053      -0.93716207
H        1.51091297       1.46201503       0.72240813
H       -1.92387864      -1.06250906       0.38217527
H       -2.09593353       0.71304930       0.20805968
H       -1.60738856      -0.28129968      -1.18514944
H        0.31010533      -2.05857618       0.81606452
H        1.74888952      -1.00019811       0.96591631
H        1.17896513      -1.51629562      -0.63842384
13
Properties=species:S:1:pos:R:3 Coordinates=T from=T ORCA-job=T orca1=T pbc="F F F"
C        0.06387744      -0.01019684      -0.24883315
C        1.48862386       0.00675504       0.21186957
C       -0.68661236      -1.30008878      -0.35608341
C       -0.72175358       1.26734983      -0.24721836
H        2.06481173       0.81786345      -0.27449851
H        2.00559169      -0.94887572       0.00847089
H        1.55810003       0.18784014       1.31048389
H       -1.61374082      -1.17319706      -0.94519824
H       -0.99215994      -1.69196083       0.64289885
H       -0.08199176      -2.09916930      -0.82726700
H       -1.45213854       1.31568419       0.59257749
H       -0.07736530       2.16109805      -0.17612411
H       -1.32683646       1.35650981      -1.17424792
13
Properties=species:S:1:pos:R:3 Coordinates=T from=T ORCA-job=T orca2=T pbc="F F F"
C       -0.00917995       0.03719458      -0.06748122
C        1.13283846      -0.91461727      -0.23529941
C        0.25022612       1.37239232       0.55636392
C       -1.40402468      -0.50518747      -0.05245393
H        1.37759674      -1.44343486       0.71735306
H        2.05838660      -0.39695902      -0.54991418
H        0.90688835      -1.70209682      -0.97888206
H       -0.55972145       2.09414369       0.33751094
H        1.20559785       1.80952918       0.20979055
H        0.32007439       1.30445589       1.66904764
H       -1.53987278      -1.31514284      -0.79376627
H       -1.67036710      -0.93968863       0.94133843
H       -2.15447454       0.28136726      -0.25804044
13
Properties=species:S:1:pos:R:3 Coordinates=T from=T ORCA-job=T orca3=T pbc="F F F"
C       -0.02284309       0.01582397      -0.14653112
C       -1.45173981      -0.04732916       0.29309039
C        0.74626895      -1.26091506      -0.28065986
C        0.72901905       1.29737908       0.02863156
H       -1.99026541      -0.89221660      -0.17570948
H       -1.53949972      -0.19025283       1.39713858
H       -1.99786989       0.88499691       0.05510485
H        1.65534154      -1.13214456      -0.89771986
H        0.13349684      -2.06526995      -0.73039042
H        1.08965735      -1.64535160       0.70959749
H        0.10596555       2.17773412      -0.21916710
H        1.63975477       1.33013985      -0.59790922
H        1.06670587       1.44026683       1.08316320
13
Properties=species:S:1:pos:R:3 Coordinates=T from=T ORCA-job=T orca4=T pbc="F F F"
C       -0.02403581       0.05563361      -0.19271812
C        0.22519857       1.46447714       0.24613494
C       -1.41512805      -0.48928940      -0.10819158
C        1.12523145      -0.90195876      -0.22859466
H        1.18009317       1.85648260      -0.15164949
H       -0.58663337       2.14565696      -0.07239182
H        0.28899620       1.54829615       1.35797724
H       -1.67863341      -0.79638067       0.93235751
H       -1.54488778      -1.38753386      -0.74060811
H       -2.17047737       0.26005513      -0.41155489
H        1.37550866      -1.28944468       0.78790967
H        0.90543049      -1.78725864      -0.85449184
H        2.04614225      -0.42591959      -0.61475086
13
Properties=species:S:1:pos:R:3 Coordinates=T from=T ORCA-job=T orca5=T pbc="F F F"
C       -0.00597474      -0.01745074      -0.02179869
C       -0.32613252       1.40833498      -0.34281806
C        1.42996678      -0.40190608       0.16568232
C       -1.07104957      -1.06179407      -0.13126378
H        0.30992088       2.11111441       0.22965004
H       -1.38310479       1.65443981      -0.13039740
H       -0.15310423       1.64293631      -1.41977790
H        1.58577804      -1.49185196       0.07324476
H        1.81311058      -0.10097762       1.16666050
H        2.09279632       0.09760583      -0.57163179
H       -1.25598494      -1.36914116      -1.18802718
H       -0.80626257      -1.98252596       0.42047067
H       -2.04315923      -0.69900073       0.25510052
13
Properties=species:S:1:pos:R:3 Coordinates=T from=T ORCA-job=T orca6=T pbc="F F F"
C        0.01119806       0.00334897      -0.07692893
C       -1.23264569      -0.82764697      -0.12818824
C        1.29671093      -0.64875440       0.32519577
C       -0.11392059       1.48914620       0.05052245
H       -1.64819247      -1.01822668       0.89015900
H       -2.03505632      -0.33293282      -0.70713570
H       -1.04512733      -1.82128022      -0.57735230
H        1.39809019      -1.66131128      -0.10827555
H        2.17545519      -0.05197670       0.01567599
H        1.37285102      -0.77113899       1.43237565
H       -0.95064892       1.88572843      -0.55479826
H        0.81273859       2.00816763      -0.25960385
H       -0.31087566       1.80234382       1.10384395
13
Properties=species:S:1:pos:R:3 Coordinates=T from=T ORCA-job=T orca7=T pbc="F F F"
C       -0.01577054       0.02526450      -0.06865842
C       -1.03884244       0.93697456       0.53243219
C        1.43280751       0.29859152       0.18716701
C       -0.42837715      -1.35554775      -0.47218203
H       -0.72269026       1.99664253       0.48842514
H       -1.21832723       0.70672888       1.61034456
H       -2.01885351       0.84646260       0.02750467
H        1.65931664       1.38102471       0.15693681
H        2.08503265      -0.21245305      -0.54562422
H        1.75173119      -0.06111909       1.19497171
H        0.29204511      -1.81150521      -1.17775378
H       -1.42863104      -1.36436608      -0.94495493
H       -0.48923493      -2.04419013       0.40493030
13
Properties=species:S:1:pos:R:3 Coordinates=T from=T ORCA-job=T orca8=T pbc="F F F"
C        0.00845461      -0.00855040       0.07652445
C        1.35430073      -0.65873497       0.00260304
C       -1.21048481      -0.84846601      -0.14327817
C       -0.09012078       1.47120321      -0.12097368
H        1.68536323      -0.81102731      -1.05252708
H        2.13581285      -0.04588077       0.49021158
H        1.35395671      -1.65841336       0.47605890
H       -1.11972236      -1.84048682       0.33725358
H       -1.39392461      -1.03991263      -1.22765220
H       -2.12323559      -0.35936097       0.24584034
H       -1.04131684       1.87662179       0.27250819
H        0.74298538       2.00900071       0.36940602
H       -0.05295251       1.75056453      -1.20128699
13
Properties=species:S:1:pos:R:3 Coordinates=T from=T ORCA-job=T orca9=T pbc="F F F"
C        0.00592577      -0.03282212      -0.09608046
C       -0.90946724       1.13624885      -0.28741032
C        1.47650493       0.11516177      -0.33356268
C       -0.57710359      -1.35304544       0.30085757
H       -1.80830636       1.06712912       0.35476330
H       -0.40754608       2.09768996      -0.06654505
H       -1.28006566       1.21124096      -1.33622135
H        1.70274228       0.96990951      -0.99859060
H        1.91773562      -0.79395985      -0.78706318
H        2.04192047       0.29269874       0.61085359
H       -1.32515740      -1.71735558      -0.43875192
H       -1.11938728      -1.29392162       1.26968389
H        0.19608953      -2.13558029       0.40090320
13
Properties=species:S:1:pos:R:3 Coordinates=T from=T ORCA-job=T orca0=T pbc="F F F"
C        0.18762064      -0.00716207      -0.40816036
C        0.68377486       1.23989360       0.25519216
C       -1.34952434      -0.13179230      -0.28632629
C        0.88263654      -1.26109695       0.14260052
H        0.41473914       0.06502803      -1.49166805
H        0.51762039       2.22074996      -0.20650146
H        1.04810461       1.21638914       1.28956919
H       -1.65228886      -0.21798916       0.77354998
H       -1.85877170       0.75115504      -0.71262543
H       -1.71474925      -1.02855870      -0.82177685
H        0.67401319      -1.38008825       1.22311922
H        1.97852739      -1.20054632       0.01399222
H        0.52587940      -2.17248602      -0.37019184
13
Properties=species:S:1:pos:R:3 Coordinates=T from=T ORCA-job=T orca1=T pbc="F F F"
C       -0.03610303      -0.11070504       0.43580830
C        1.42838778      -0.12534021       0.12539194
C       -0.75788588      -1.33000505      -0.15568647
C       -0.69702097       1.20440571      -0.04288359
H       -0.15470671      -0.14081273       1.53876051
H        1.80428160      -0.61370456      -0.78216749
H        2.12293720       0.50760337       0.69068626
H       -0.68029694      -1.33238083      -1.26015643
H       -1.83163599      -1.32450500       0.10652496
H       -0.31948217      -2.27324167       0.21591670
H       -1.76715441       1.23005619       0.23747131
H       -0.20530920       2.08620283       0.40490264
H       -0.62715428       1.29951499      -1.14259366
13
Properties=species:S:1:pos:R:3 Coordinates=T from=T ORCA-job=T orca2=T pbc="F F F"
C       -0.02388922       0.13795119      -0.45327752
C        1.07522336      -0.87515213      -0.49384362
C        0.30557071       1.29894592       0.49928168
C       -1.37981230      -0.50334274      -0.11350774
H       -0.12345988       0.57917076      -1.47401349
H        2.12027814      -0.56922748      -0.36183886
H        0.87819817      -1.89854484      -0.83448627
H       -0.48138270       2.07497753       0.46884771
H        1.26389289       1.77748851       0.22631654
H        0.39154249       0.93941939       1.54145765
H       -1.62555420      -1.31835616      -0.81845716
H       -1.36585181      -0.93166027       0.90591667
H       -2.19473965       0.24226233      -0.15915460
13
Properties=species:S:1:pos:R:3 Coordinates=T from=T ORCA-job=T orca3=T pbc="F F F"
C       -0.07224414       0.07412040      -0.39200314
C       -1.34752140       0.04167334       0.39150071
C        0.73461102      -1.22101678      -0.22398385
C        0.78167289       1.30977503      -0.02159096
H       -0.33153083       0.18153432      -1.46611431
H       -1.45019767      -0.59862917       1.27613882
H       -2.13515802       0.78027451       0.20002173
H        1.65644346      -1.20123935      -0.83251272
H        0.14243050      -2.10272086      -0.52780643
H        1.03209066      -1.36185489       0.83252160
H        0.21339530       2.24658766      -0.16520929
H        1.69158171       1.36168111      -0.64827510
H        1.09614252       1.26434168       1.03727094
13
Properties=species:S:1:pos:R:3 Coordinates=T from=T ORCA-job=T orca4=T pbc="F F F"
C        0.00852583       0.00747755       0.46200511
C        0.03267987       1.41505836      -0.04731423
C       -1.38700357      -0.63412419       0.27300520
C        1.09862946      -0.85414501      -0.19019539
H        0.19814862       0.03389308       1.55531265
H        0.41718575       1.64369603      -1.04871396
H       -0.49314801       2.21105422       0.49340626
H       -1.41174909      -1.65154841       0.70650482
H       -1.63934115      -0.71203879      -0.80059287
H       -2.17374073      -0.03405720       0.76379170
H        1.09136263      -1.88240987       0.21424601
H        0.94113852      -0.92131535      -1.28386688
H        2.10274087      -0.42600444      -0.01892542
13
Properties=species:S:1:pos:R:3 Coordinates=T from=T ORCA-job=T orca5=T pbc="F F F"
C       -0.07803484       0.00088968       0.31154743
C       -0.35940834       1.28635767      -0.40619728
C        1.37398366      -0.45871516       0.10576547
C       -1.10072711      -1.08520603      -0.09190360
H       -0.22296698       0.19515224       1.39951607
H       -1.39450385       1.57806318      -0.62597428
H        0.40533110       2.06853469      -0.49646760
H        1.53524156      -1.46977899       0.52181454
H        2.08522347       0.21930570       0.61203153
H        1.63915954      -0.48073764      -0.96671956
H       -1.13664085      -1.18914292      -1.19219619
H       -0.81870824      -2.06855067       0.32465071
H       -2.11273011      -0.82069675       0.26125875
13
Properties=species:S:1:pos:R:3 Coordinates=T from=T ORCA-job=T orca6=T pbc="F F F"
C        0.09562889       0.02014845      -0.45647616
C       -1.16614508      -0.77508484      -0.34267172
C        1.26462258      -0.65254667       0.27954370
C       -0.10441967       1.47219353       0.01462769
H        0.37578892       0.07161098      -1.53554124
H       -2.13208351      -0.32418401      -0.59977454
H       -1.13869657      -1.85354310      -0.14702995
H        1.43104857      -1.68088056      -0.08961226
H        2.20262962      -0.08548038       0.13803813
H        1.06219880      -0.71109992       1.36552974
H       -0.93078804       1.96074299      -0.53290610
H        0.81120165       2.07105519      -0.14466959
H       -0.34973913       1.50142533       1.09257031
13
Properties=species:S:1:pos:R:3 Coordinates=T from=T ORCA-job=T orca7=T pbc="F F F"
C       -0.02463137       0.11429837      -0.32709330
C       -1.02914649       0.78831464       0.55470994
C        1.40239604       0.26022384       0.21966179
C       -0.38071032      -1.37528621      -0.54646634
H       -0.06217210       0.59853939      -1.32497168
H       -0.83360042       0.92848165       1.62516943
H       -2.03893756       1.00425354       0.18595013
H        1.68130855       1.32311092       0.33238342
H        2.13923646      -0.21916568      -0.44997568
H        1.48965956      -0.21890294       1.21324140
H        0.32963054      -1.84967694      -1.24999639
H       -1.39846209      -1.48606708      -0.96153159
H       -0.34176482      -1.93091751       0.40860589
13
Properties=species:S:1:pos:R:3 Coordinates=T from=T ORCA-job=T orca8=T pbc="F F F"
C       -0.06531699      -0.01977029       0.43010186
C        1.21771541      -0.74222589       0.16649424
C       -1.28044601      -0.81207704      -0.08118423
C       -0.04328395       1.40838017      -0.13898630
H       -0.18554415       0.07600884       1.53562207
H        2.16822154      -0.19793978       0.11458993
H        1.25580045      -1.83826938       0.18676198
H       -1.30715951      -1.82705062       0.35478439
H       -1.24467063      -0.91751633      -1.18147565
H       -2.22608622      -0.30468051       0.18388453
H       -0.96895487       1.95461125       0.11975566
H        0.81304539       1.98334742       0.25851700
H        0.04497454       1.38865617      -1.24147450
13
Properties=species:S:1:pos:R:3 Coordinates=T from=T ORCA-job=T orca9=T pbc="F F F"
C        0.09488882       0.14508931       0.33201982
C       -0.82988593       1.08525176      -0.37629196
C        1.48636889       0.11481293      -0.34493604
C       -0.49496945      -1.26973898       0.42828447
H        0.25092060       0.52581962       1.36198714
H       -0.73090472       2.16999343      -0.24782605
H       -1.49052550       0.72221961      -1.17413275
H        1.93034400       1.12529022      -0.39453286
H        1.40907110      -0.27234749      -1.37762552
H        2.18130136      -0.53870783       0.21587768
H       -0.66276456      -1.69182056      -0.58072490
H       -1.46449609      -1.26283562       0.95704507
H        0.18677047      -1.95130040       0.96912588
13
Properties=species:S:1:pos:R:3 Coordinates=T from=T ORCA-job=T orca0=T pbc="F F F"
C        0.07220999       0.04170825      -0.25221972
C        0.42112873       1.22241996       0.59725557
C       -1.44378247      -0.21360284      -0.27895936
C        0.84806349      -1.21623203       0.17239658
H        0.37882201       0.26985512      -1.30122281
H       -0.26628982       2.07263882       0.68274663
H        1.42964500       1.33413733       1.01215529
H       -1.81570893      -0.47153301       0.73003526
H       -1.99412952       0.68126866      -0.62273204
H       -1.69409295      -1.04766843      -0.95955427
H        0.56975460      -1.51858583       1.19896635
H        1.93928841      -1.03885148       0.15709584
H        0.63142246      -2.06351452      -0.50336833
13
Properties=species:S:1:pos:R:3 Coordinates=T from=T ORCA-job=T orca1=T pbc="F F F"
C       -0.04076065       0.08899198       0.44003109
C        1.41869872       0.22771331       0.13663834
C       -0.60615866      -1.23695977      -0.12412453
C       -0.84688741       1.28953384      -0.07572280
H       -0.16036900       0.04062044       1.54214218
H        1.75705467       0.79000393      -0.74265536
H        2.15778871      -0.38399493       0.66756693
H       -0.53773882      -1.25270055      -1.22800151
H       -1.66923660      -1.36115469       0.15669214
H       -0.04676119      -2.10720115       0.26271871
H       -1.91882595       1.19003782       0.17533286
H       -0.47934355       2.23499569       0.36119684
H       -0.76450827       1.37198409      -1.17673188
13
Properties=species:S:1:pos:R:3 Coordinates=T from=T ORCA-job=T orca2=T pbc="F F F"
C       -0.03179132       0.08108062      -0.36785719
C        0.99392438      -0.99744885      -0.20839270
C        0.26811954       1.29011746       0.52839215
C       -1.45827612      -0.45917879      -0.10742873
H       -0.01248876       0.42072932      -1.42437259
H        1.55577016      -1.10349599       0.72777424
H        1.07062483      -1.80479933      -0.94665287
H       -0.47835881       2.09244590       0.38293131
H        1.26717859       1.70942488       0.31247066
H        0.24720346       0.99984011       1.59650003
H       -1.68870931      -1.31521627      -0.76641034
H       -1.56159972      -0.79983434       0.93929035
H       -2.21523592       0.32730429      -0.28926532
13
Properties=species:S:1:pos:R:3 Coordinates=T from=T ORCA-job=T orca3=T pbc="F F F"
C       -0.05401488       0.06170403      -0.51301211
C       -1.41934621      -0.01314664       0.09308591
C        0.74292499      -1.23428680      -0.28396435
C        0.72303160       1.29342294      -0.02047267
H       -0.17205465       0.17524483      -1.61733307
H       -1.96633296      -0.96325846       0.12047803
H       -1.95924200       0.89913552       0.37291508
H        1.72060076      -1.19538824      -0.79707391
H        0.19477834      -2.11415424      -0.66724069
H        0.92791643      -1.39417319       0.79437992
H        0.16281473       2.22567128      -0.21932207
H        1.70270486       1.37264765      -0.52491895
H        0.90355998       1.23256032       1.06885586
13
Properties=species:S:1:pos:R:3 Coordinates=T from=T ORCA-job=T orca4=T pbc="F F F"
C        0.08724922      -0.02480234       0.53699442
C        0.23570860       1.41475266       0.15893890
C       -1.33474913      -0.54253555       0.25852306
C        1.14985851      -0.90615350      -0.13884704
H        0.24853379      -0.10978078       1.63836700
H        1.21402190       1.82553301      -0.11710128
H       -0.59205035       2.11803243       0.31138561
H       -1.45352315      -1.58486518       0.60652065
H       -1.55482662      -0.51647512      -0.82481623
H       -2.09331785       0.07460442       0.77311180
H        1.07666813      -1.95361754       0.20587386
H        1.02471197      -0.89854467      -1.23808601
H        2.17021597      -0.54585084       0.08780427
13
Properties=species:S:1:pos:R:3 Coordinates=T from=T ORCA-job=T orca5=T pbc="F F F"
C       -0.00611031       0.03807053       0.38335880
C       -0.14722718       1.41242301      -0.19320955
C        1.44061290      -0.48872725       0.22868691
C       -1.01257952      -0.94380959      -0.23322229
H       -0.20617533       0.09917916       1.47290611
H        0.26772799       2.28224907       0.32970649
H       -0.49844649       1.55334800      -1.22278600
H        1.54930190      -1.48042436       0.70694252
H        2.16982436       0.19751838       0.69471627
H        1.70621624      -0.59216569      -0.83953231
H       -0.83752590      -1.05015643      -1.32110161
H       -0.92231818      -1.94717404       0.22103199
H       -2.05098747      -0.59431279      -0.09003233
13
Properties=species:S:1:pos:R:3 Coordinates=T from=T ORCA-job=T orca6=T pbc="F F F"
C        0.08800888      -0.05124038      -0.32871905
C       -1.09802052      -0.90751947      -0.01604526
C        1.38875388      -0.64538106       0.23514757
C       -0.11738924       1.39918527       0.14286819
H        0.20231447      -0.01309312      -1.43839648
H       -2.11319108      -0.49855867      -0.08668883
H       -0.98902982      -1.98756817       0.13900301
H        1.55145558      -1.67452121      -0.13344884
H        2.26370103      -0.03795902      -0.05984561
H        1.35513083      -0.68255425       1.34014021
H       -1.03982934       1.83254178      -0.28474618
H        0.73087875       2.03953997      -0.16168549
H       -0.20266244       1.44334833       1.24482275
13
Properties=species:S:1:pos:R:3 Coordinates=T from=T ORCA-job=T orca7=T pbc="F F F"
C        0.00378337       0.16569833      -0.42079547
C       -1.00133721       0.98773966       0.32150956
C        1.41171012       0.30551851       0.18434325
C       -0.42213667      -1.30753773      -0.51863583
H        0.06499683       0.55669360      -1.46466570
H       -0.73044112       1.97297991       0.71885758
H       -2.05917386       0.69932284       0.34373236
H        1.72376528       1.36475471       0.23267346
H        2.15908416      -0.24242874      -0.41783093
H        1.43578867      -0.10060932       1.21228060
H        0.29502504      -1.89014801      -1.12484469
H       -1.41866584      -1.40418216      -0.98679676
H       -0.47331077      -1.76775362       0.48566458
13
Properties=species:S:1:pos:R:3 Coordinates=T from=T ORCA-job=T orca8=T pbc="F F F"
C       -0.00188092      -0.00128131       0.27377755
C        1.22204651      -0.69904298      -0.22936445
C       -1.27963335      -0.80448760      -0.02724222
C       -0.10255465       1.43539255      -0.26310424
H        0.07589537       0.07238008       1.38482971
H        2.12107114      -0.13379220      -0.50143770
H        1.29986897      -1.79216996      -0.18163794
H       -1.21636277      -1.82815102       0.38415447
H       -1.44102299      -0.88786470      -1.11799618
H       -2.16759079      -0.31704713       0.41471662
H       -0.97592262       1.95951684       0.16562628
H        0.80114717       2.02101432      -0.01241320
H       -0.21027908       1.43439812      -1.36405370
13
Properties=species:S:1:pos:R:3 Coordinates=T from=T ORCA-job=T orca9=T pbc="F F F"
C        0.01162967       0.09087409       0.33786054
C       -1.02120734       0.93081663      -0.34735547
C        1.36136620       0.13942685      -0.39233154
C       -0.47200179      -1.36927295       0.50469401
H        0.15831434       0.49357378       1.36150050
H       -1.93684463       1.22700477       0.17812459
H       -0.96291348       1.12705050      -1.42504307
H        1.73422384       1.17584146      -0.47654350
H        1.26617157      -0.26982226      -1.41612143
H        2.12482748      -0.45838645       0.13800415
H       -0.62906273      -1.84443733      -0.48101572
H       -1.42703797      -1.41268781       1.05803251
H        0.27414184      -1.96860229       1.06025545
