13
Coordinates from ORCA-job orca3
  C   -0.05401487813627      0.06170402855301     -0.51301210643449
  C   -1.41934621142304     -0.01314663524821      0.09308591329993
  C   0.74292499433654     -1.23428680065439     -0.28396434687935
  C   0.72303160367428      1.29342294331223     -0.02047266635409
  H   -0.17205464519975      0.17524482589304     -1.61733307068429
  H   -1.96633296179345     -0.96325846320558      0.12047802513138
  H   -1.95924200382513      0.89913551783553      0.37291508127894
  H   1.72060076022044     -1.19538824138296     -0.79707390593289
  H   0.19477834433781     -2.11415424420012     -0.66724069154005
  H   0.92791642942546     -1.39417318958860      0.79437991937162
  H   0.16281472640309      2.22567128219220     -0.21932206692449
  H   1.70270485798050      1.37264765232595     -0.52491894756943
  H   0.90355998399952      1.23256032416790      1.06885586323722
