13
Coordinates from ORCA-job orca1
  C   -0.04076065459235      0.08899198281085      0.44003109161387
  C   1.41869872260189      0.22771330609138      0.13663833688344
  C   -0.60615865608572     -1.23695977212333     -0.12412452533062
  C   -0.84688740524727      1.28953383572970     -0.07572279905925
  H   -0.16036900248002      0.04062043673646      1.54214217829276
  H   1.75705466777490      0.79000392784014     -0.74265535551851
  H   2.15778871230451     -0.38399492943609      0.66756692719731
  H   -0.53773882077631     -1.25270054618324     -1.22800151186560
  H   -1.66923659746415     -1.36115468750617      0.15669213891217
  H   -0.04676118897478     -2.10720114534460      0.26271870927146
  H   -1.91882595359441      1.19003781903316      0.17533285746035
  H   -0.47934355218825      2.23499568693648      0.36119683700092
  H   -0.76450827127804      1.37198408541524     -1.17673188485830
