13
Coordinates from ORCA-job orca0
  C   0.07220999293395      0.04170825077941     -0.25221971828134
  C   0.42112872840618      1.22241995821652      0.59725557443137
  C   -1.44378247420203     -0.21360283980651     -0.27895935587646
  C   0.84806349106232     -1.21623202923934      0.17239657646996
  H   0.37882201357348      0.26985511984512     -1.30122280952297
  H   -0.26628982284791      2.07263881809209      0.68274663010977
  H   1.42964500152547      1.33413733051120      1.01215529199369
  H   -1.81570893334052     -0.47153301382571      0.73003525659667
  H   -1.99412951643355      0.68126866464160     -0.62273203827492
  H   -1.69409294855311     -1.04766842612390     -0.95955426554538
  H   0.56975459752666     -1.51858582725705      1.19896634714634
  H   1.93928840758155     -1.03885148319941      0.15709583765413
  H   0.63142246276752     -2.06351452263402     -0.50336832690086
