6
Coordinates from ORCA-job orca4
  C   -0.37574900000000     -0.00092800000000     -0.00402600000000
  O   0.89547900000000      0.52275000000000     -0.11503500000000
  H   -0.52825000000000     -0.42941300000000      1.00280100000000
  H   -0.51772500000000     -0.79198000000000     -0.75091900000000
  H   -1.08004800000000      0.83962200000000     -0.17183100000000
  H   1.60629200000000     -0.14005000000000      0.03901000000000
