6
Coordinates from ORCA-job orca3
  C   -0.38243300000000      0.00043400000000      0.01088700000000
  O   0.92143200000000     -0.49268500000000     -0.13979000000000
  H   -0.59539300000000     -0.03579300000000      1.09833400000000
  H   -0.51226300000000      1.00859400000000     -0.40620100000000
  H   -1.01239700000000     -0.71450700000000     -0.57301700000000
  H   1.58105600000000      0.23395700000000      0.00978700000000
