20
Coordinates from ORCA-job orca1
  C   -2.26444596774644      0.39382426142130      0.77933269267248
  C   -1.75338295896746      0.27392213663965     -0.65889229581954
  C   -0.70833061041767     -0.83309076058067     -0.86723944727696
  C   0.56422428793884     -0.71688815285004     -0.01525215690519
  C   1.35676730631262      0.57905987210919     -0.22294199060662
  C   2.67329792113901      0.60765213695933      0.55646515862221
  H   -1.46437157005464      0.70004699242404      1.47735521914849
  H   -2.66739923584116     -0.57097575433346      1.14121117879882
  H   -3.07242014764811      1.14426326739477      0.85436178741212
  H   -1.33770681490155      1.24636575175456     -0.98340022807002
  H   -2.60851504657623      0.07505644277079     -1.33178758683797
  H   -0.42148357830049     -0.85266971598329     -1.93664991571916
  H   -1.18265238495778     -1.81292090373352     -0.66068702165284
  H   0.31053204998422     -0.81856438528588      1.05776644087133
  H   1.22070909952654     -1.57730859045979     -0.24888666618055
  H   0.73997635026416      1.44746413092202      0.07578736701948
  H   1.56130994953836      0.70991373128242     -1.30390280200308
  H   2.49518328475190      0.50259921197292      1.64334788268180
  H   3.33873151065078     -0.22061396641297      0.24787578217093
  H   3.21997755530509      1.55515529398862      0.39613560167427
