13
Coordinates from ORCA-job orca2
  C   -0.00917995238088      0.03719457607998     -0.06748122188038
  C   1.13283845819039     -0.91461726781473     -0.23529941372133
  C   0.25022612043821      1.37239232256713      0.55636392317423
  C   -1.40402467881716     -0.50518747188926     -0.05245393351898
  H   1.37759674293222     -1.44343485585145      0.71735305945953
  H   2.05838659680505     -0.39695902464510     -0.54991418247245
  H   0.90688835491244     -1.70209682320219     -0.97888206173506
  H   -0.55972145405380      2.09414369353223      0.33751093528823
  H   1.20559784902828      1.80952917573727      0.20979054857124
  H   0.32007439120183      1.30445589295611      1.66904763595355
  H   -1.53987278152579     -1.31514284496511     -0.79376627490928
  H   -1.67036710291775     -0.93968862847603      0.94133842754443
  H   -2.15447454381306      0.28136725597116     -0.25804044175373
