13
Coordinates from ORCA-job orca5
  C   -0.00597474238421     -0.01745073692808     -0.02179869437773
  C   -0.32613252323329      1.40833497579663     -0.34281805956257
  C   1.42996678046537     -0.40190608155803      0.16568231505247
  C   -1.07104957045903     -1.06179406850878     -0.13126378191469
  H   0.30992087675501      2.11111440644846      0.22965003991348
  H   -1.38310479408097      1.65443980744242     -0.13039739689269
  H   -0.15310422835808      1.64293631495681     -1.41977789627510
  H   1.58577804191564     -1.49185195978496      0.07324475505095
  H   1.81311058200685     -0.10097762057275      1.16666049927979
  H   2.09279631648836      0.09760582651648     -0.57163179023034
  H   -1.25598494289199     -1.36914116454253     -1.18802718097384
  H   -0.80626256587814     -1.98252596453209      0.42047067490592
  H   -2.04315923034554     -0.69900073473356      0.25510051602436
