27
Properties=species:S:1:pos:R:3
C     -1.572165   -0.779295   -0.926201
C     -0.724770   -0.186275    0.158239
C     -1.124999   -0.612829    1.536143
C     -0.589081    1.330493    0.031374
C      0.144816    1.432076   -1.272281
C      0.957568    0.143592   -1.403455
C      0.759562   -0.456830   -0.049222
C      1.155506   -1.859878    0.121928
C      1.384855    0.497391    0.923149
O      2.583104    0.756080    0.804559
C      0.371959    1.578760    1.172855
H     -1.275411   -1.817994   -1.161379
H     -1.452894   -0.171185   -1.843715
H     -2.625130   -0.746045   -0.613538
H     -1.637545   -1.594482    1.512081
H     -1.814535    0.121440    1.999330
H     -0.241385   -0.737841    2.207954
H     -1.530746    1.859341    0.097263
H     -0.503667    1.604569   -2.139268
H      0.853241    2.294243   -1.223880
H      2.025699    0.398839   -1.600998
H      0.533822   -0.439306   -2.233562
H      2.233153   -1.956932   -0.039886
H      0.942865   -2.146332    1.182420
H      0.530284   -2.502552   -0.506109
H      0.812578    2.583690    1.160413
H     -0.196684    1.407263    2.105784
