20
Coordinates from ORCA-job orca5
  C   2.51287524191606     -0.01638780186893      0.73309260672270
  C   1.44066483535341     -0.38893681549720     -0.29410213661887
  C   0.65193645327238      0.82638939877572     -0.83677235051057
  C   -0.86613302371440      0.61621927953288     -0.92431420205631
  C   -1.54948964889106      0.32297262727791      0.43550812476974
  C   -2.27027168471743     -1.02745866695449      0.49031316885401
  H   3.00198524363315     -0.91157752204696      1.15742597643780
  H   2.07426843610076      0.55885947360416      1.57010269139646
  H   3.29956568284990      0.61766300811446      0.28197250134379
  H   1.91571717080826     -0.92378291288649     -1.13771704302057
  H   0.74545774539536     -1.11878052082379      0.16053040865509
  H   1.03223147715876      1.10106141066921     -1.83807497407331
  H   0.84998196635946      1.70989633603073     -0.19837895095247
  H   -1.31895824562665      1.51218782070787     -1.38689458979356
  H   -1.07400659139751     -0.21304656938514     -1.62921480794356
  H   -0.79795732024507      0.36185166506987      1.24691717161365
  H   -2.27419376047514      1.12470397511164      0.66750662283962
  H   -2.65147335225883     -1.24555692541999      1.50446789634917
  H   -3.12969099026995     -1.05326628163067     -0.20545087985326
  H   -1.59251063525146     -1.85300997838079      0.20308076584045
