5
Properties=species:S:1:pos:R:3 smiles=CO_rad5 config_type=start_0 pbc="F F F"
C       -0.36983600       0.00258100       0.00279600
O        0.89798500      -0.57483500      -0.11909400
H       -0.67409100      -0.11938000       1.05078000
H       -0.31418200       1.06647400      -0.31548300
H       -1.08304200      -0.52456300      -0.64297200
5
Properties=species:S:1:pos:R:3 smiles=CO_rad5 config_type=start_1 pbc="F F F"
C       -0.37710200      -0.03143100      -0.01133700
O        0.95801600      -0.32182100      -0.33515500
H       -0.52276700       0.05306400       1.08200200
H       -0.62192300       0.92652900      -0.51057700
H       -0.94556000      -0.88649300      -0.45977700
5
Properties=species:S:1:pos:R:3 smiles=CO_rad5 config_type=start_2 pbc="F F F"
C       -0.38621300       0.01215600      -0.00466000
O        0.92880700       0.37777600      -0.29938000
H       -0.47529800      -0.61669000       0.89761400
H       -0.73843100      -0.58693400      -0.85945600
H       -0.92986300       0.97899800       0.11193100
5
Properties=species:S:1:pos:R:3 smiles=CO_rad5 config_type=start_3 pbc="F F F"
C       -0.38243300       0.00043400       0.01088700
O        0.92143200      -0.49268500      -0.13979000
H       -0.59539300      -0.03579300       1.09833400
H       -0.51226300       1.00859400      -0.40620100
H       -1.01239700      -0.71450700      -0.57301700
5
Properties=species:S:1:pos:R:3 smiles=CO_rad5 config_type=start_4 pbc="F F F"
C       -0.37574900      -0.00092800      -0.00402600
O        0.89547900       0.52275000      -0.11503500
H       -0.52825000      -0.42941300       1.00280100
H       -0.51772500      -0.79198000      -0.75091900
H       -1.08004800       0.83962200      -0.17183100
