27
Properties=species:S:1:pos:R:3 smiles=CC1(C)C2CCC1(C)C(=O)C2 name=camphor pbc="F F F"
  C   -1.46222739404521     -1.17048263733108      0.85627877447392
  C   -0.70158464686312     -0.32967160044038     -0.17673292576914
  C   -1.11274175938715     -0.82456453208256     -1.57338000067122
  C   -0.86137913116592      1.21245684330597      0.02626564488747
  C   -0.20656257304245      1.44509832384329      1.40679389976503
  C   0.98694851016688      0.44452148010816      1.39611589895699
  C   0.85218080293687     -0.30242432999283      0.03030673798241
  C   1.64225005209366     -1.58940076837214     -0.08470994156184
  C   1.25293256709241      0.76849197604249     -0.99313882268760
  O   2.27204063484360      0.80566443745592     -1.63670964345598
  C   0.10632424126947      1.79185500229290     -1.02232353992094
  H   -2.55262747216835     -1.04738094918641      0.71541286135302
  H   -1.23214057744329     -0.90562192455647      1.90005802297256
  H   -1.23115256273348     -2.24370813486673      0.72920295995681
  H   -0.51907404231470     -0.38156433894133     -2.39022369273917
  H   -0.98894040159726     -1.91989700099638     -1.64496335908860
  H   -2.17720626770658     -0.59856099438921     -1.76771545530379
  H   -1.89538800579440      1.58368261109168     -0.05587792089981
  H   -0.90668975844392      1.23342465699140      2.23004420679013
  H   0.12185976335518      2.49089752271337      1.52412832476323
  H   1.96698953385023      0.94210273674549      1.48369410414198
  H   0.92411679362921     -0.28451529391446      2.22150420402396
  H   2.72240987375969     -1.38554790288224      0.01962489502201
  H   1.34571721957747     -2.31227265075250      0.69633799821301
  H   1.49621654896760     -2.06362291501583     -1.07174517849804
  H   -0.32163117709391      1.83929436632610     -2.03746174015206
  H   0.47936122825746      2.80174501680376     -0.78078631255432
