32
Properties=species:S:1:pos:R:3 smiles=CCCCCCCCCC config_type=start_0 pbc="F F F"
C        4.83895600      -0.04179100      -0.14683700
C        3.83163300       1.06793100      -0.41270000
C        2.48434700       0.42064500      -0.71383000
C        1.64976700       0.45114400       0.56159700
C        0.21045600       0.24035300       0.21745700
C       -0.24309300      -1.18239900       0.25511600
C       -1.69499700      -1.18099700       0.72118300
C       -2.54562600      -0.47853800      -0.31367100
C       -3.50796000       0.50258300       0.29311200
C       -4.95599300       0.08002000       0.13081400
H        5.44118500      -0.23339800      -1.06754100
H        5.47278700       0.20316200       0.72113700
H        4.30252800      -1.00122700       0.06033600
H        3.78388300       1.69845800       0.49700900
H        4.17535300       1.69636000      -1.27333300
H        1.92015000       1.00653800      -1.46361900
H        2.64842600      -0.63018300      -1.02012400
H        2.06639100      -0.28483700       1.26858000
H        1.76024100       1.49693300       0.94585600
H        0.05338000       0.63080100      -0.81633500
H       -0.40295100       0.85834800       0.91469700
H        0.35604700      -1.84211600       0.89961600
H       -0.20780900      -1.61921500      -0.77333900
H       -2.07384100      -2.19961300       0.91981000
H       -1.69253300      -0.64954300       1.69548300
H       -3.07366900      -1.27217300      -0.88279100
H       -1.91161200       0.08890100      -1.03620700
H       -3.29070200       0.66117000       1.37986600
H       -3.43326300       1.51211900      -0.18231600
H       -5.51764700       0.56687400       0.96713100
H       -5.40538400       0.46341400      -0.81115400
H       -5.03844900      -1.02972400       0.21887500
32
Properties=species:S:1:pos:R:3 smiles=CCCCCCCCCC config_type=start_1 pbc="F F F"
C       -4.58222000       0.59150700       0.61513300
C       -4.07555300      -0.83275400       0.74850200
C       -2.89318800      -1.06902800      -0.15527900
C       -1.76817900      -0.10634800       0.10022700
C       -0.60913200      -0.45360500      -0.79633800
C        0.51885800       0.53573600      -0.72141200
C        1.67399000       0.03058100       0.13594400
C        2.82187500       0.97318900      -0.10100000
C        4.04610200       0.64061000       0.70603500
C        4.85632400      -0.48287100       0.12737800
H       -5.64354500       0.60270000       0.97032000
H       -4.58170800       0.93418600      -0.43268200
H       -4.00700900       1.22379100       1.30440000
H       -4.89925800      -1.49216000       0.40645900
H       -3.87012000      -1.04054600       1.80902900
H       -3.24748800      -0.89708400      -1.19358200
H       -2.60548000      -2.12651900      -0.04755900
H       -2.12158300       0.90558200      -0.21138700
H       -1.47594800      -0.05853500       1.16808400
H       -0.25209900      -1.47052800      -0.53222400
H       -0.99237500      -0.44138600      -1.84381100
H        0.97057400       0.74785800      -1.72389000
H        0.22726100       1.51165500      -0.28847500
H        1.91327800      -1.02108800      -0.07039500
H        1.33558100       0.14241500       1.19674800
H        3.04190100       1.05084700      -1.18064600
H        2.47922100       1.98766300       0.21501900
H        3.75143800       0.44747400       1.74952500
H        4.68789200       1.55824300       0.69547500
H        5.73032000      -0.13118700      -0.47022600
H        4.27219200      -1.20199700      -0.46784600
H        5.29807800      -1.05840200       0.97458100
32
Properties=species:S:1:pos:R:3 smiles=CCCCCCCCCC config_type=start_2 pbc="F F F"
C        4.97958300       0.20132900      -0.81247300
C        4.16131600      -0.21928700       0.40327000
C        2.72740200       0.17889000       0.18603400
C        1.81431500      -1.02648800       0.00017200
C        0.53651900      -0.63629000      -0.68336200
C       -0.66650200      -0.66874500       0.23915400
C       -1.48759800       0.54907000      -0.07664600
C       -2.80077400       0.60763300       0.64005800
C       -3.93219100       0.01046900      -0.19056500
C       -5.23796900       0.43988200       0.46487200
H        4.63395200      -0.31398900      -1.72424700
H        4.93246100       1.31390300      -0.90019900
H        6.05434000      -0.02767500      -0.60818100
H        4.55204000       0.40737400       1.24464500
H        4.29263300      -1.30329700       0.59722800
H        2.62271200       0.81365100      -0.72969300
H        2.33264500       0.81202100       1.02006600
H        2.35493700      -1.71201600      -0.70070100
H        1.64183100      -1.54948000       0.97476100
H        0.69782700       0.38369800      -1.11593000
H        0.28511000      -1.30701300      -1.54241300
H       -0.36978100      -0.59897900       1.31223900
H       -1.27521700      -1.59747600       0.10259400
H       -0.87701700       1.43407400       0.22813400
H       -1.67616800       0.52966400      -1.17314700
H       -3.06491400       1.69151100       0.74001000
H       -2.78734800       0.18796600       1.65796300
H       -3.89852200       0.50655000      -1.17181000
H       -3.84828900      -1.09280400      -0.23920400
H       -5.58020800      -0.29941700       1.20774500
H       -6.03148900       0.61592700      -0.30161500
H       -5.08563600       1.43650700       0.95124000
32
Properties=species:S:1:pos:R:3 smiles=CCCCCCCCCC config_type=start_3 pbc="F F F"
C       -4.53489300       0.80803300      -0.09681700
C       -3.82041800      -0.06291300       0.89380100
C       -2.47700700      -0.53936600       0.43026400
C       -1.63090100       0.52577300      -0.19728000
C       -0.54347700      -0.15648000      -1.01948500
C        0.26802700      -1.11119000      -0.17430200
C        1.74437800      -1.03756600      -0.47205200
C        2.48297000      -0.10717200       0.46975000
C        3.59367300       0.52871500      -0.35785900
C        4.85973300       0.68851800       0.46081700
H       -4.22984900       1.87354100       0.01854200
H       -4.47094100       0.46044900      -1.13744200
H       -5.61857300       0.78936100       0.18448900
H       -4.45979700      -0.96816400       1.05212400
H       -3.75114500       0.47289500       1.85269700
H       -2.56540400      -1.37758100      -0.27898600
H       -1.93927600      -0.90683400       1.34090800
H       -2.18143100       1.20486300      -0.86488800
H       -1.09488600       1.09952600       0.59652800
H       -1.08402000      -0.69584300      -1.83816500
H        0.12766900       0.57269400      -1.50914900
H        0.04796800      -0.98348200       0.90985200
H       -0.05760600      -2.14444900      -0.45127200
H        2.22879800      -2.03849400      -0.36016700
H        1.84602700      -0.70460500      -1.52812900
H        2.93453600      -0.65683400       1.33208000
H        1.82130600       0.67472900       0.86949200
H        3.83557000      -0.05815300      -1.25440600
H        3.22070100       1.53026500      -0.68582500
H        5.72900200       0.77177500      -0.22020300
H        4.74269800       1.64785300       1.02038100
H        4.97656900      -0.09986300       1.22499600
32
Properties=species:S:1:pos:R:3 smiles=CCCCCCCCCC config_type=start_4 pbc="F F F"
C       -3.80530000       1.37473300       0.30809900
C       -4.08747700       0.04835600      -0.33400100
C       -2.87692700      -0.82405300      -0.48820400
C       -1.63285200      -0.25814200       0.12959000
C       -0.46467700      -1.12587600      -0.32524600
C        0.62009800      -1.18706700       0.71353400
C        1.63516100      -0.08049200       0.52596300
C        2.56396100      -0.39123100      -0.61686300
C        3.96965800       0.12216700      -0.34147200
C        3.95101200       1.46678100       0.34840400
H       -3.71582400       2.17217000      -0.47308900
H       -4.71323200       1.63855900       0.90796000
H       -2.93059900       1.37195700       0.98144800
H       -4.49527600       0.23648100      -1.34900300
H       -4.88177700      -0.51149100       0.21210400
H       -2.64044600      -1.04906000      -1.55602900
H       -3.05559700      -1.81439400      -0.00016500
H       -1.40839100       0.76835800      -0.25561600
H       -1.76411000      -0.27967000       1.22767300
H       -0.81821600      -2.13970200      -0.64433100
H        0.00108000      -0.69115800      -1.24566100
H        1.18708800      -2.14353300       0.58789900
H        0.20436000      -1.17966200       1.74136000
H        2.25645800       0.03783600       1.42935300
H        1.10667900       0.87120000       0.33538900
H        2.21275300       0.03006300      -1.57209800
H        2.67383800      -1.48622200      -0.77415600
H        4.52828700       0.24251300      -1.29503400
H        4.52159900      -0.65224100       0.24403600
H        2.92486200       1.85559800       0.46067400
H        4.41886400       1.34445100       1.35779500
H        4.51494200       2.23276900      -0.24031100
32
Properties=species:S:1:pos:R:3 smiles=CCCCCCCCCC config_type=start_5 pbc="F F F"
C        4.14728200       1.06946500      -0.04559300
C        3.78690700      -0.40285800       0.11618300
C        2.78179800      -0.76810100      -0.94306600
C        1.60686800      -1.50472500      -0.32797400
C        0.43433100      -0.59998200      -0.08219600
C       -0.83525100      -1.42372700      -0.17882000
C       -1.97441400      -0.48739500      -0.56388700
C       -2.46137600       0.17801400       0.69149200
C       -3.81536000       0.80713100       0.55363900
C       -3.80250700       2.10628700      -0.20403300
H        3.99723500       1.41223000      -1.08215600
H        5.20009700       1.27196900       0.22430900
H        3.51982900       1.67049900       0.65217500
H        3.40853400      -0.57642200       1.14806300
H        4.72743600      -0.97693800       0.03696500
H        3.28543500      -1.49402500      -1.62938400
H        2.44329600       0.10625400      -1.52069200
H        1.29128000      -2.35969100      -0.97422800
H        1.98236000      -1.95504100       0.61263600
H        0.34053600       0.21534300      -0.81496200
H        0.46044500      -0.12166500       0.92287800
H       -1.00921900      -1.85772800       0.83006900
H       -0.71175600      -2.25028000      -0.89652000
H       -1.56689200       0.27179500      -1.25330500
H       -2.76111800      -1.09068000      -1.06668600
H       -1.67467400       0.86379200       1.04282100
H       -2.55749600      -0.62163700       1.46890800
H       -4.46863900       0.10336200       0.01903000
H       -4.18081900       1.03150700       1.58754600
H       -3.69941400       1.97053900      -1.29830600
H       -4.81094000       2.56766200      -0.04914600
H       -3.08379100       2.84504500       0.21285400
32
Properties=species:S:1:pos:R:3 smiles=CCCCCCCCCC config_type=start_6 pbc="F F F"
C       -3.80227300       1.33239000       0.15688800
C       -4.04899400      -0.08903400      -0.26207300
C       -3.12148000      -1.07526800       0.39526600
C       -1.87785100      -1.35058600      -0.40877000
C       -0.88053900      -0.26524700      -0.06911200
C        0.53942600      -0.81795700      -0.10572800
C        1.43012800       0.20740300       0.55166100
C        2.56873700       0.62529800      -0.33772800
C        3.81404000      -0.10518600       0.08028000
C        5.03628000       0.76692900      -0.17262200
H       -4.70348400       1.79851400       0.62987700
H       -3.59039200       1.95898400      -0.74372400
H       -2.98310700       1.44764900       0.88056600
H       -5.08412300      -0.35382500       0.07233700
H       -4.02088700      -0.16454300      -1.37499900
H       -2.77333500      -0.69263500       1.38814600
H       -3.67326700      -2.02074900       0.62717300
H       -1.48430400      -2.35810400      -0.12954000
H       -2.07151900      -1.40176300      -1.50219300
H       -1.04888000       0.02693800       0.99840300
H       -1.02206700       0.58639300      -0.74726400
H        0.51762800      -1.73539200       0.53481100
H        0.81776800      -1.02427600      -1.14899300
H        1.84515300      -0.15931000       1.52455900
H        0.87426500       1.14271700       0.81523400
H        2.37348900       0.40267100      -1.41326200
H        2.78160000       1.71516400      -0.29839400
H        3.78431700      -0.31424600       1.16894400
H        3.91187600      -1.05914000      -0.48149900
H        5.03746000       1.10207800      -1.22519300
H        4.89602200       1.66988700       0.47259900
H        5.95831300       0.20424400       0.08053000
32
Properties=species:S:1:pos:R:3 smiles=CCCCCCCCCC config_type=start_7 pbc="F F F"
C        5.19695700      -0.35244700      -0.10179500
C        3.69657700      -0.47258500      -0.23750400
C        3.01926000       0.50666600       0.67423700
C        1.69824000       0.98840100       0.14285800
C        0.65039000      -0.08362000       0.07045800
C       -0.46351500       0.42677100      -0.83595100
C       -1.76460000       0.58918500      -0.07980500
C       -2.83595600      -0.36503400      -0.57974700
C       -4.18689700       0.09977100      -0.10868900
C       -5.00745300      -1.04510000       0.41898500
H        5.73651700      -1.12566800      -0.66599000
H        5.53019500      -0.36524600       0.95554500
H        5.54293600       0.62665800      -0.51148000
H        3.39344900      -1.48749300       0.07875700
H        3.42770700      -0.23236500      -1.28177100
H        2.96879700       0.09791400       1.69681300
H        3.68065200       1.40616800       0.73695800
H        1.31823000       1.79325000       0.78850900
H        1.88009500       1.37829800      -0.87899200
H        1.00537800      -1.03434900      -0.35451200
H        0.20612700      -0.19855500       1.08454300
H       -0.17194200       1.38341100      -1.33973500
H       -0.67285500      -0.28667700      -1.66447200
H       -2.16514200       1.61365400      -0.25159500
H       -1.64252400       0.47549900       1.01477000
H       -2.82847400      -0.36045900      -1.69420000
H       -2.64748900      -1.40540800      -0.23598400
H       -4.75102300       0.57647000      -0.94927500
H       -4.04531800       0.91576600       0.64176800
H       -5.55461500      -0.76655600       1.35439700
H       -5.80126200      -1.32319900      -0.31397400
H       -4.41244100      -1.97312000       0.57539200
32
Properties=species:S:1:pos:R:3 smiles=CCCCCCCCCC config_type=start_8 pbc="F F F"
C        4.52212800      -0.74289000       0.78079600
C        3.74216700       0.25252600       1.59919600
C        2.63620700       0.80811500       0.74716400
C        1.84984200      -0.29394200       0.05203700
C        0.76072100       0.36666300      -0.78036200
C       -0.61665700      -0.03389100      -0.27855500
C       -1.51361300      -0.09899900      -1.50560000
C       -2.82462000       0.56995800      -1.10636500
C       -3.44180900      -0.36073100      -0.07716400
C       -4.88286300      -0.04290100       0.20234200
H        3.87822400      -1.64661000       0.69490100
H        5.41306600      -1.03634800       1.35623400
H        4.75292400      -0.27032900      -0.18313000
H        4.39216500       1.08019200       1.92068200
H        3.27536000      -0.19701500       2.50445200
H        1.88891900       1.33714200       1.39037800
H        3.02802000       1.47376200      -0.04535900
H        1.42898700      -0.96854100       0.81609700
H        2.52921600      -0.85212500      -0.61493500
H        0.80633100       1.48038900      -0.67895700
H        0.90000300       0.15712900      -1.85584100
H       -1.00799600       0.68215500       0.48280300
H       -0.54313900      -1.01286900       0.24037900
H       -1.73060400      -1.16978500      -1.73927600
H       -1.06874800       0.40032700      -2.38065300
H       -2.57087700       1.55910700      -0.69981700
H       -3.50292100       0.63984900      -1.97907400
H       -2.85605400      -0.35899900       0.85621200
H       -3.42743200      -1.38004100      -0.54122900
H       -5.48615700      -0.97141700       0.36278600
H       -5.34860300       0.48043100      -0.64257900
H       -4.98218600       0.58757200       1.10243700
32
Properties=species:S:1:pos:R:3 smiles=CCCCCCCCCC config_type=start_9 pbc="F F F"
C       -4.74233200      -0.10096200       0.27022200
C       -3.65742000       0.51081400      -0.57498900
C       -2.28322600       0.35147200       0.01452500
C       -1.58619900      -0.82970500      -0.64694300
C       -0.12540600      -0.46979700      -0.89066100
C        0.50374600       0.19870200       0.30033900
C        1.56924800      -0.63160700       0.95800900
C        2.79218000      -0.83807500       0.12516100
C        3.38741900       0.42537900      -0.42190900
C        4.31911700       1.10689900       0.57097400
H       -5.59361100       0.61128200       0.40301200
H       -4.38492500      -0.41173200       1.27226100
H       -5.18619400      -1.00571800      -0.19682200
H       -3.88813700       1.60006400      -0.69517500
H       -3.74812600       0.04931600      -1.58109000
H       -1.71917000       1.30184500      -0.16495900
H       -2.35903000       0.23162300       1.11079900
H       -2.04657500      -1.10397900      -1.60650700
H       -1.60507900      -1.66219600       0.09430100
H        0.41096100      -1.38302100      -1.21391800
H       -0.14567300       0.23627600      -1.75786300
H       -0.30904700       0.31675900       1.06270100
H        0.82814200       1.23422800       0.07126500
H        1.12524500      -1.62227300       1.16743300
H        1.81435200      -0.17711600       1.92605000
H        3.57004800      -1.29472700       0.78772900
H        2.63702400      -1.59467000      -0.68274800
H        4.04520000       0.12543100      -1.27712800
H        2.64582400       1.12062000      -0.85111400
H        3.81212600       1.89991400       1.14992800
H        5.22532700       1.51065900       0.06165600
H        4.69419200       0.29429300       1.23529600
