20
Coordinates from ORCA-job orca3
  C   -3.02772350963236      0.06180322124220      0.45110353016671
  C   -1.51710257776986     -0.09483672123194      0.63827533384936
  C   -0.77373299870240     -0.35476491584772     -0.67710658932167
  C   0.73189638170592     -0.61010309531294     -0.52745587357647
  C   1.53842563803613      0.58149320989701      0.00207087279138
  C   3.04333427778069      0.31002615871345      0.05415574639784
  H   -3.25994278139573      0.90799722830786     -0.22271795739623
  H   -3.47179230385833     -0.84754104489644      0.00414872921486
  H   -3.53966832875180      0.24733651831544      1.41241542389513
  H   -1.11413684090974      0.81430553929080      1.12266613530131
  H   -1.31382175952568     -0.92916631694798      1.33843942793219
  H   -0.93352350994903      0.50362506028035     -1.36026163246039
  H   -1.23516281319221     -1.22884354431964     -1.17708322597970
  H   1.14254314141552     -0.90513730584055     -1.51246278292977
  H   0.88957900963125     -1.48061169365853      0.14063199022262
  H   1.34303683691749      1.46357531992597     -0.63919642983947
  H   1.18366682587587      0.85445725332754      1.01304950723296
  H   3.27101357828876     -0.54849050278487      0.71367879425089
  H   3.44230554355186      0.07094381657725     -0.94938738720266
  H   3.60080519048363      1.18392981496275      0.43744138745112
