27
Properties=species:S:1:pos:R:3 smiles=CC1CC2CCC1CC=OC2 name=camphor config_type=start_0 pbc="F F F"
C       -1.44270964      -1.19180500       0.86545046
C       -0.71049332      -0.34666583      -0.17977031
C       -1.05173612      -0.76487256      -1.56504057
C       -0.86478003       1.22679817       0.00789977
C       -0.17368074       1.43774092       1.39878535
C        0.97651009       0.42353562       1.39011735
C        0.86234764      -0.30103647       0.02964592
C        1.57741908      -1.64561066      -0.01782249
C        1.24412085       0.75397860      -1.01754783
O        2.26123068       0.88042656      -1.66193781
C        0.07164211       1.76913250      -1.03786809
H       -2.53865903      -1.09852771       0.83742253
H       -1.19977593      -0.89912528       1.90326583
H       -1.17793168      -2.26801860       0.78181117
H       -0.57167658      -0.23339013      -2.38893036
H       -0.71498331      -1.83398325      -1.74884031
H       -2.16717130      -0.69220988      -1.68002996
H       -1.89283513       1.59424665      -0.05899925
H       -0.82539365       1.32052585       2.29005505
H        0.22342219       2.44951843       1.43059442
H        1.93642445       0.89739038       1.50942287
H        0.86284549      -0.32192147       2.21886092
H        2.63421644      -1.45457243       0.19012882
H        1.12535489      -2.34099916       0.73366586
H        1.53981336      -2.12220610      -1.06588731
H       -0.29633708       1.81351912      -2.06909066
H        0.55497382       2.76082310      -0.81184606
27
Properties=species:S:1:pos:R:3 smiles=CC1CC2CCC1CC=OC2 name=camphor config_type=start_1 pbc="F F F"
C       -1.42918212      -1.21484368       0.79878885
C       -0.68784081      -0.30555917      -0.17365148
C       -1.08830084      -0.78368550      -1.60069172
C       -0.83689842       1.22645308       0.04611944
C       -0.22231220       1.45035022       1.43002061
C        0.99189580       0.47699288       1.41703354
C        0.85552119      -0.29279528       0.05885803
C        1.60874670      -1.61347893      -0.01700792
C        1.27277032       0.75623156      -0.98778222
O        2.22227636       0.78301670      -1.73525297
C        0.10838999       1.77709683      -0.99053891
H       -2.52503537      -1.19562928       0.59109754
H       -1.32617014      -0.96270151       1.86898148
H       -1.17156557      -2.29292940       0.67137719
H       -0.47341251      -0.36631308      -2.39372611
H       -1.07522766      -1.88237106      -1.67153543
H       -2.14477736      -0.47065464      -1.85172143
H       -1.87430691       1.56011302      -0.10139222
H       -0.86146354       1.12010305       2.26683684
H        0.06854077       2.50066933       1.58879570
H        1.98219802       1.01299487       1.51295976
H        0.95227483      -0.21557648       2.26630806
H        2.69212225      -1.34217709       0.08590061
H        1.36771818      -2.26839424       0.86369518
H        1.42670661      -2.14525036      -0.97111605
H       -0.35942804       1.87881932      -2.01346059
H        0.43051408       2.80907478      -0.75532223
27
Properties=species:S:1:pos:R:3 smiles=CC1CC2CCC1CC=OC2 name=camphor config_type=start_2 pbc="F F F"
C       -1.48485392      -1.18062814       0.82126052
C       -0.68631047      -0.33343102      -0.16489330
C       -1.05446935      -0.81107683      -1.58299302
C       -0.86431637       1.22891424       0.04855559
C       -0.20509221       1.44136037       1.43345175
C        0.98008345       0.44543487       1.43618411
C        0.88112730      -0.25100590       0.06751258
C        1.64702554      -1.56159781      -0.08180466
C        1.23623717       0.77316010      -1.01554789
O        2.24173900       0.71928723      -1.69044285
C        0.09634755       1.80395917      -1.02273978
H       -2.57955914      -1.08566469       0.58424180
H       -1.34221598      -0.91365541       1.91686573
H       -1.21235557      -2.25614106       0.74219168
H       -0.62751975      -0.26182110      -2.45880645
H       -0.79477564      -1.88405442      -1.70018003
H       -2.14836457      -0.69371645      -1.71785204
H       -1.90930806       1.56862750      -0.00290388
H       -0.86106975       1.21499160       2.28988428
H        0.19744007       2.46558781       1.53642617
H        1.97022383       0.89374766       1.59302943
H        0.81352575      -0.35188360       2.22564384
H        2.70677047      -1.35517783       0.05971453
H        1.30294084      -2.28865279       0.66455345
H        1.54745224      -1.93160353      -1.13131154
H       -0.36373112       1.83935959      -2.03877016
H        0.42157370       2.85800873      -0.81485963
27
Properties=species:S:1:pos:R:3 smiles=CC1CC2CCC1CC=OC2 name=camphor config_type=start_3 pbc="F F F"
C       -1.52088722      -1.09002735       0.84900476
C       -0.68708152      -0.33907146      -0.19032427
C       -1.09334728      -0.83361840      -1.57914587
C       -0.84641561       1.18615245       0.03539423
C       -0.17419264       1.40702242       1.41896117
C        0.99737442       0.42726092       1.40489245
C        0.88369349      -0.31593441       0.02410532
C        1.67559208      -1.59110609      -0.07728822
C        1.23453471       0.77723935      -0.99451952
O        2.25819221       0.84517006      -1.63702484
C        0.06261343       1.76214945      -1.04576444
H       -2.60722984      -0.80594462       0.82156317
H       -1.18831171      -0.84276598       1.86927762
H       -1.40138709      -2.18161042       0.71716186
H       -0.44262902      -0.41362707      -2.36852038
H       -0.93981911      -1.92909174      -1.60758160
H       -2.14643262      -0.60141578      -1.80399445
H       -1.87145246       1.52615743      -0.00805206
H       -0.91133402       1.21525842       2.23191766
H        0.10180902       2.45778101       1.50518398
H        1.98069744       0.91271837       1.53369654
H        0.83479699      -0.28889047       2.27152802
H        2.73882438      -1.41854985       0.07544371
H        1.33793838      -2.32530967       0.71520115
H        1.48672816      -2.08732026      -1.05583471
H       -0.38123678       1.79021921      -2.07426415
H        0.43484604       2.77865981      -0.80638974
27
Properties=species:S:1:pos:R:3 smiles=CC1CC2CCC1CC=OC2 name=camphor config_type=start_4 pbc="F F F"
C       -1.45551129      -1.14355941       0.85866219
C       -0.71317591      -0.31998101      -0.18725725
C       -1.10090623      -0.78302973      -1.62440247
C       -0.88023086       1.20070970       0.03006422
C       -0.25851131       1.37704099       1.42554385
C        1.00278014       0.49022694       1.37895821
C        0.84856412      -0.32141966       0.03450208
C        1.65971363      -1.58533289      -0.03476353
C        1.25916677       0.72864410      -0.99690668
O        2.25228391       0.78439359      -1.67579218
C        0.12936646       1.79473994      -0.97624003
H       -2.54417710      -0.81269522       0.88278426
H       -1.05231633      -0.91153023       1.86721805
H       -1.42801476      -2.23743727       0.63576453
H       -0.55812324      -0.20565810      -2.42701709
H       -0.88342846      -1.85495680      -1.75931775
H       -2.18018355      -0.74158115      -1.82467758
H       -1.93435602       1.56948473      -0.17666823
H       -0.87475428       1.04582016       2.27720374
H        0.07465237       2.42478358       1.58962445
H        1.95635516       1.09548039       1.39775812
H        1.09023542      -0.21300037       2.21688904
H        2.74625262      -1.19756433      -0.27245068
H        1.64499048      -2.09332946       1.01683493
H        1.28709978      -2.38071365      -0.83011461
H       -0.29917399       1.90546035      -1.99498071
H        0.55827389       2.78666838      -0.71448397
27
Properties=species:S:1:pos:R:3 smiles=CC1CC2CCC1CC=OC2 name=camphor config_type=start_5 pbc="F F F"
C       -1.47191010      -1.12836411       0.85750023
C       -0.70592567      -0.33853647      -0.19215593
C       -1.13494719      -0.83476618      -1.54928898
C       -0.85947927       1.21966651      -0.00594369
C       -0.24327972       1.41590576       1.40930969
C        0.98053040       0.44255340       1.38785203
C        0.86565665      -0.31248049       0.00243017
C        1.67476339      -1.59366449      -0.05276918
C        1.24939531       0.75638227      -1.00635137
O        2.24455807       0.81060753      -1.66804943
C        0.16640755       1.81799185      -0.96838530
H       -2.52696129      -1.03222194       0.71630059
H       -1.22269344      -0.86648084       1.88757619
H       -1.21945623      -2.18640180       0.78143286
H       -0.68140946      -0.36646039      -2.44694883
H       -0.95078583      -1.90988449      -1.68125308
H       -2.24278973      -0.72514147      -1.65084182
H       -1.90062671       1.58031786      -0.06220289
H       -0.99288204       1.04744717       2.13668354
H        0.02406229       2.48554787       1.64436807
H        1.92417468       0.99612431       1.43081412
H        0.98185042      -0.29804335       2.24832595
H        2.75588166      -1.38445043       0.16857637
H        1.37261282      -2.31359991       0.67623782
H        1.66981792      -2.10760438      -1.03897384
H       -0.21210501       1.96692189      -2.02897156
H        0.59006242       2.79794989      -0.71215801
27
Properties=species:S:1:pos:R:3 smiles=CC1CC2CCC1CC=OC2 name=camphor config_type=start_6 pbc="F F F"
C       -1.46219196      -1.12011209       0.81211113
C       -0.67009249      -0.31380933      -0.17717667
C       -0.95174702      -0.84251857      -1.59786450
C       -0.85236851       1.21776191       0.05328374
C       -0.19754703       1.41243044       1.44817316
C        1.04262561       0.49485433       1.38081874
C        0.84353349      -0.31355943       0.04740620
C        1.56945538      -1.65466317      -0.06037595
C        1.20644483       0.77435574      -0.96289813
O        2.18635773       0.79323440      -1.70633302
C        0.06454820       1.80736235      -0.99743384
H       -2.58301601      -0.98274880       0.68565452
H       -1.28179295      -0.88678650       1.88393596
H       -1.20070547      -2.18436562       0.66948593
H       -0.29444891      -0.44817835      -2.38968359
H       -0.74913366      -1.90522267      -1.63201089
H       -2.01643546      -0.66650758      -1.91930752
H       -1.89666068       1.62354273      -0.01594862
H       -0.90503435       1.20144260       2.28646460
H        0.03433220       2.47258001       1.55257453
H        2.00941043       1.02828908       1.36737369
H        1.04756448      -0.20095824       2.25360393
H        2.65381852      -1.57721218       0.30822030
H        0.96302254      -2.35655387       0.64789870
H        1.56949310      -2.03354964      -1.11182843
H       -0.40753480       1.88252926      -1.99855198
H        0.49869854       2.78588263      -0.67208148
27
Properties=species:S:1:pos:R:3 smiles=CC1CC2CCC1CC=OC2 name=camphor config_type=start_7 pbc="F F F"
C       -1.51986077      -1.14973968       0.83977225
C       -0.69938162      -0.34359445      -0.18259514
C       -1.07934143      -0.86647022      -1.58190763
C       -0.88465466       1.23762015       0.03637655
C       -0.19683430       1.48503096       1.44037322
C        1.03730515       0.45946471       1.39848606
C        0.86738443      -0.34213105       0.02807196
C        1.67675832      -1.59064430      -0.12919987
C        1.23329990       0.77498505      -0.98477389
O        2.26948709       0.77980077      -1.59889066
C        0.07509735       1.81779172      -1.04165749
H       -2.59442322      -1.04848868       0.65713527
H       -1.28542619      -0.87789562       1.88875074
H       -1.38050497      -2.24982374       0.80899969
H       -0.39463586      -0.56591319      -2.46271185
H       -1.10000513      -1.97960762      -1.55411650
H       -2.12048087      -0.59152582      -1.80126999
H       -1.91281360       1.63033803      -0.04511566
H       -0.91932866       1.18412861       2.22818551
H        0.07484895       2.54224524       1.61774350
H        2.01008112       1.00650241       1.47290531
H        1.03879606      -0.24592238       2.23114860
H        2.74862945      -1.43389915      -0.10020241
H        1.42863716      -2.38105296       0.59697327
H        1.46200616      -2.00455438      -1.10625615
H       -0.39531688       1.94439036      -2.01002172
H        0.45023336       2.79584952      -0.74428864
27
Properties=species:S:1:pos:R:3 smiles=CC1CC2CCC1CC=OC2 name=camphor config_type=start_8 pbc="F F F"
C       -1.47969332      -1.16632215       0.87041278
C       -0.70842560      -0.33039127      -0.18612157
C       -1.12329846      -0.80173501      -1.58490492
C       -0.87191694       1.18343831       0.03197072
C       -0.20018793       1.44652450       1.40312292
C        0.96835732       0.41558785       1.40870285
C        0.84567567      -0.31492438       0.01103878
C        1.67715348      -1.57912526      -0.03424811
C        1.27659849       0.78358130      -1.01773732
O        2.28187610       0.82453310      -1.68585966
C        0.09796998       1.77857040      -0.99204057
H       -2.57530928      -0.92044854       0.83962540
H       -1.15110297      -0.92135919       1.88184933
H       -1.34433067      -2.23762641       0.67820554
H       -0.59428423      -0.36386323      -2.43183790
H       -0.97469258      -1.88275051      -1.63420269
H       -2.18507150      -0.62668267      -1.79820766
H       -1.86851720       1.57687378      -0.11189015
H       -0.86421507       1.36018799       2.31035068
H        0.20420361       2.47495241       1.41346748
H        1.91193980       0.92316795       1.60677904
H        0.86038635      -0.32942961       2.18652301
H        2.74396580      -1.41886929       0.24993974
H        1.26409585      -2.34934865       0.66273677
H        1.70260768      -2.06668363      -1.05903193
H       -0.33869233       1.79421743      -2.03205213
H        0.45027117       2.80179656      -0.74436546
27
Properties=species:S:1:pos:R:3 smiles=CC1CC2CCC1CC=OC2 name=camphor config_type=start_9 pbc="F F F"
C       -1.53169227      -1.17670011       0.85016568
C       -0.72786863      -0.27837270      -0.17964129
C       -1.08254413      -0.81316205      -1.58125746
C       -0.87053561       1.21768982       0.05882059
C       -0.19624915       1.43126309       1.41783771
C        1.02369613       0.45703371       1.38119002
C        0.85421711      -0.29369691       0.02618652
C        1.68134292      -1.56520187      -0.06214871
C        1.26009917       0.74008833      -1.00200784
O        2.26460787       0.80370440      -1.62829812
C        0.07665499       1.75138229      -1.03095524
H       -2.61166811      -0.91586837       0.83849443
H       -1.12664134      -1.08973618       1.88854573
H       -1.40826094      -2.28125332       0.54704719
H       -0.48246072      -0.42896307      -2.44941698
H       -0.98437928      -1.90244322      -1.61717123
H       -2.12794891      -0.62253367      -1.81245155
H       -1.87151021       1.59261926      -0.05370754
H       -0.84297856       1.18102600       2.26958142
H        0.16896550       2.47834770       1.56376334
H        2.01583134       0.89730667       1.42207118
H        0.98346775      -0.28736735       2.18089753
H        2.74289602      -1.33187688       0.18132453
H        1.35579284      -2.33904474       0.64103515
H        1.56006032      -1.95698092      -1.09396975
H       -0.35504378       1.70416904      -2.09009543
H        0.44114227       2.79051109      -0.93002738
27
Properties=species:S:1:pos:R:3 smiles=CC1CC2CCC1CC=OC2 name=camphor config_type=start_10 pbc="F F F"
C       -1.47935318      -1.14126009       0.82384916
C       -0.68533052      -0.31644224      -0.19504135
C       -1.09092286      -0.84267098      -1.58117341
C       -0.83770105       1.19417983       0.01076049
C       -0.21539936       1.45745377       1.44769860
C        0.99681331       0.44331735       1.43652114
C        0.89130589      -0.30170726       0.05594661
C        1.61158608      -1.62770468      -0.06629609
C        1.28238136       0.77476089      -0.95797449
O        2.23089930       0.83666205      -1.71252062
C        0.09286603       1.78753138      -1.02786215
H       -2.58643956      -1.05607422       0.60071226
H       -1.32125680      -0.85408054       1.87423542
H       -1.23532028      -2.20930898       0.82789945
H       -0.57103842      -0.36551604      -2.42461321
H       -0.88177650      -1.92592777      -1.56042691
H       -2.16938289      -0.73642888      -1.73178936
H       -1.87414883       1.53925937      -0.03513749
H       -0.90997447       1.24974511       2.27579736
H        0.12278400       2.47197064       1.57734421
H        1.96433584       0.93855448       1.54810628
H        0.98378797      -0.31369156       2.24656576
H        2.66624038      -1.51336852       0.17136439
H        1.22851903      -2.42675690       0.59043958
H        1.53883439      -1.99714123      -1.10729627
H       -0.33560413       1.83441961      -2.04606205
H        0.42966294       2.84029204      -0.79785631
27
Properties=species:S:1:pos:R:3 smiles=CC1CC2CCC1CC=OC2 name=camphor config_type=start_11 pbc="F F F"
C       -1.46389799      -1.11104201       0.85222822
C       -0.67065042      -0.30605005      -0.18495226
C       -1.03999983      -0.81506299      -1.57069771
C       -0.86398076       1.20163790       0.02784045
C       -0.25334779       1.43194228       1.42530462
C        0.94616727       0.44932901       1.42741482
C        0.86271544      -0.30285418       0.05266070
C        1.65462142      -1.55458643      -0.13412532
C        1.23195704       0.77280547      -0.97787884
O        2.22654082       0.70202782      -1.69316479
C        0.13069226       1.80918859      -0.99574325
H       -2.57597542      -0.95706167       0.91664679
H       -1.03490751      -0.95053337       1.90739665
H       -1.24502990      -2.16871449       0.66007437
H       -0.65570789      -0.22501943      -2.44952686
H       -0.72011162      -1.88646551      -1.66658567
H       -2.13019575      -0.84116822      -1.67181762
H       -1.91863353       1.53541360      -0.15816822
H       -0.97584588       1.17166207       2.20531339
H        0.04816866       2.45869235       1.61468528
H        1.90421030       1.00289960       1.62464803
H        0.86091589      -0.32912756       2.24382029
H        2.74093534      -1.35814026       0.00340422
H        1.38969359      -2.31411074       0.62458186
H        1.61036042      -2.00743093      -1.13068975
H       -0.29608098       1.89044860      -2.04404193
H        0.49702879       2.82933677      -0.68723519
27
Properties=species:S:1:pos:R:3 smiles=CC1CC2CCC1CC=OC2 name=camphor config_type=start_12 pbc="F F F"
C       -1.45373366      -1.16336523       0.88536170
C       -0.71367080      -0.33650688      -0.17670121
C       -1.17928665      -0.85799784      -1.57110328
C       -0.87291196       1.22156359       0.02550334
C       -0.20081017       1.43971447       1.38442132
C        0.95126255       0.41683437       1.39044162
C        0.82766891      -0.29182285       0.01438570
C        1.66469117      -1.54443551      -0.15581227
C        1.30801103       0.79244777      -0.94019636
O        2.33221192       0.78175329      -1.58233634
C        0.08738833       1.80644100      -1.04585386
H       -2.54864179      -1.04032067       0.74228104
H       -1.20342018      -0.83833678       1.94451088
H       -1.14278096      -2.23913924       0.82099808
H       -0.53314840      -0.51647976      -2.40353399
H       -1.22620894      -2.00807277      -1.56935749
H       -2.20338269      -0.53019026      -1.75952418
H       -1.93719381       1.54315868       0.01208694
H       -0.87392523       1.29888105       2.28921419
H        0.20372606       2.47563781       1.37627747
H        1.96439193       0.88174082       1.50288789
H        0.86101116      -0.36305958       2.14897427
H        2.74426631      -1.27821522      -0.03259054
H        1.43947721      -2.29026480       0.60414584
H        1.58254819      -2.00644044      -1.16159473
H       -0.34122197       1.74467821      -2.05230944
H        0.41548747       2.85375020      -0.89880205
27
Properties=species:S:1:pos:R:3 smiles=CC1CC2CCC1CC=OC2 name=camphor config_type=start_13 pbc="F F F"
C       -1.54000120      -1.15081525       0.82453278
C       -0.69905102      -0.34571906      -0.15951407
C       -1.09520053      -0.86371048      -1.55355684
C       -0.88621008       1.23284501       0.05946369
C       -0.16929989       1.42314817       1.43414036
C        1.00880928       0.42022307       1.40169248
C        0.86869268      -0.29508309       0.02875918
C        1.64686969      -1.56488691      -0.08154840
C        1.25242248       0.81013414      -1.02100696
O        2.30044150       0.80500612      -1.63686104
C        0.07414890       1.78952615      -1.05596828
H       -2.62080184      -1.09829825       0.57716903
H       -1.42358079      -0.82028504       1.88981010
H       -1.18438902      -2.21643186       0.71967692
H       -0.34988969      -0.55088690      -2.37775531
H       -1.08221995      -1.97752428      -1.59156664
H       -2.10528577      -0.47843690      -1.80581331
H       -1.90009465       1.56324336       0.06137304
H       -0.86424673       1.19410130       2.23569791
H        0.12634996       2.47334760       1.54979450
H        2.02037712       0.86950965       1.53315673
H        0.91744313      -0.26405298       2.19991652
H        2.75659599      -1.43399006      -0.20244232
H        1.46312670      -2.20763047       0.84068908
H        1.36571687      -2.06445829      -1.07314907
H       -0.39617822       1.85206350      -2.06826754
H        0.47542050       2.80223583      -0.85110465
27
Properties=species:S:1:pos:R:3 smiles=CC1CC2CCC1CC=OC2 name=camphor config_type=start_14 pbc="F F F"
C       -1.47913020      -1.18974563       0.90235277
C       -0.71793379      -0.34455146      -0.14852734
C       -1.16723127      -0.84638390      -1.56527990
C       -0.86645564       1.23033996       0.02590078
C       -0.17091329       1.48092198       1.37982509
C        0.98443524       0.41374092       1.34790352
C        0.84159689      -0.30499285       0.00222558
C        1.65259868      -1.57846400      -0.15126442
C        1.25407619       0.76561500      -0.99203986
O        2.32059382       0.86706207      -1.50994375
C        0.11142562       1.75216120      -1.04954340
H       -2.57718470      -1.17400709       0.59314722
H       -1.39868606      -0.73324282       1.92762211
H       -1.12341987      -2.26996512       0.90057499
H       -0.49082465      -0.42419936      -2.32629869
H       -1.13719004      -1.94686240      -1.61360753
H       -2.20745517      -0.55546027      -1.86095956
H       -1.87067956       1.57574275      -0.12163938
H       -0.86287100       1.32222740       2.19142685
H        0.18571966       2.52343258       1.47930215
H        1.98445441       0.83834818       1.40358441
H        0.83481883      -0.31494649       2.13204363
H        2.79447020      -1.36649848      -0.39880351
H        1.59972228      -2.22623448       0.80021074
H        1.23436492      -2.19310987      -1.04627197
H       -0.34114129       1.75506639      -2.09880215
H        0.47724089       2.76563905      -0.84371732
27
Properties=species:S:1:pos:R:3 smiles=CC1CC2CCC1CC=OC2 name=camphor config_type=start_15 pbc="F F F"
C       -1.48767756      -1.13562508       0.82537718
C       -0.70363499      -0.32015641      -0.17297850
C       -1.06939857      -0.78882125      -1.59544412
C       -0.86742383       1.19879576       0.03773371
C       -0.20747222       1.40856258       1.42497915
C        1.01141133       0.45213642       1.42273923
C        0.87435116      -0.31579460       0.07636038
C        1.64978922      -1.60653864      -0.07101616
C        1.22213849       0.75295742      -1.02891341
O        2.26125956       0.79986425      -1.65884919
C        0.07076818       1.78407779      -1.03106710
H       -2.56755179      -0.93914479       0.65760468
H       -1.20989874      -0.89303985       1.85433747
H       -1.22071794      -2.21572438       0.72946147
H       -0.43961417      -0.33917257      -2.40911786
H       -0.93734568      -1.90188410      -1.59790319
H       -2.14555158      -0.58231993      -1.76078445
H       -1.91283701       1.61055707       0.04367995
H       -0.93572103       1.22675864       2.23951136
H        0.08918052       2.48723867       1.49378413
H        1.94878408       1.01596471       1.45187314
H        1.06641312      -0.22022374       2.30151414
H        2.72222825      -1.41445683       0.03224701
H        1.36462443      -2.31811226       0.73479907
H        1.53598921      -2.07061323      -1.07224898
H       -0.38421397       1.80077211      -2.02389333
H        0.46843564       2.78782960      -0.81772424
27
Properties=species:S:1:pos:R:3 smiles=CC1CC2CCC1CC=OC2 name=camphor config_type=start_16 pbc="F F F"
C       -1.46203078      -1.22899088       0.80800107
C       -0.71366118      -0.30458979      -0.17067303
C       -1.08967375      -0.78257869      -1.56298236
C       -0.87667136       1.24465600       0.04882842
C       -0.25876762       1.45040475       1.46800128
C        0.98465049       0.47563108       1.37552750
C        0.87133316      -0.29565324       0.02855314
C        1.68561599      -1.59217671      -0.02058843
C        1.26508504       0.75380286      -1.01031506
O        2.23909948       0.71606327      -1.73025775
C        0.12854974       1.84782472      -0.98599672
H       -2.56550578      -1.31482073       0.50150844
H       -1.43027705      -0.88427205       1.86242035
H       -1.07998217      -2.25312583       0.69195771
H       -0.55384719      -0.27896822      -2.38901814
H       -0.87534251      -1.84055008      -1.66705219
H       -2.17765865      -0.59354475      -1.73282704
H       -1.91397644       1.62157356      -0.07149608
H       -1.03512771       1.15949059       2.24155863
H       -0.00568430       2.50266321       1.71943272
H        1.97377263       0.93481004       1.44793469
H        1.04150578      -0.28679022       2.14185418
H        2.77913346      -1.40527394      -0.13780611
H        1.45098467      -2.19101478       0.89310626
H        1.39461650      -2.29974817      -0.87780603
H       -0.27292748       1.98392681      -2.02237797
H        0.56874503       2.85711935      -0.68929907
27
Properties=species:S:1:pos:R:3 smiles=CC1CC2CCC1CC=OC2 name=camphor config_type=start_17 pbc="F F F"
C       -1.41116279      -1.20123031       0.85363003
C       -0.68522961      -0.30262451      -0.17936785
C       -1.11929764      -0.79894670      -1.58981836
C       -0.87259278       1.20968191       0.04214059
C       -0.20208151       1.50642081       1.39979300
C        0.95695714       0.44085934       1.36414713
C        0.84591407      -0.32516869       0.01427314
C        1.61540799      -1.65095995      -0.08159646
C        1.25465565       0.78110596      -0.98472816
O        2.27633180       0.83911726      -1.61717079
C        0.10429247       1.76931451      -1.00451670
H       -2.51800437      -1.12534141       0.78058033
H       -1.14168467      -0.89975892       1.88632181
H       -1.09589218      -2.24205366       0.79558399
H       -0.52172862      -0.40482270      -2.39811801
H       -0.98018647      -1.87728867      -1.59245870
H       -2.18846492      -0.56363908      -1.79459636
H       -1.91946516       1.56886585      -0.05235762
H       -0.84853502       1.22421341       2.19136045
H        0.04711372       2.58093428       1.43871555
H        1.94227908       0.87812044       1.49471477
H        0.80985109      -0.26551618       2.19227744
H        2.70197549      -1.41298789      -0.16549196
H        1.44038266      -2.24617210       0.86712277
H        1.30384138      -2.32097966      -0.97681854
H       -0.25411616       1.74462534      -2.05636139
H        0.49713084       2.78730278      -0.77287800
27
Properties=species:S:1:pos:R:3 smiles=CC1CC2CCC1CC=OC2 name=camphor config_type=start_18 pbc="F F F"
C       -1.49289097      -1.15330207       0.84816105
C       -0.69272430      -0.33361137      -0.19238928
C       -1.02279145      -0.82860934      -1.63101542
C       -0.86841018       1.18739552       0.03865876
C       -0.19936665       1.44073878       1.44306292
C        0.99808412       0.45717948       1.40329231
C        0.86330621      -0.27650672       0.03783638
C        1.63095812      -1.55397725      -0.05012418
C        1.23946880       0.76090488      -0.97972088
O        2.21875433       0.73557958      -1.72019806
C        0.09040969       1.78787677      -0.98448820
H       -2.57176116      -0.92904293       0.84019563
H       -1.19534427      -0.93470244       1.89122822
H       -1.34744744      -2.24531359       0.71071604
H       -0.32874400      -0.35467067      -2.35709920
H       -0.84652526      -1.92153722      -1.69532516
H       -2.04133155      -0.54778158      -1.85304269
H       -1.90451864       1.56024404       0.01570275
H       -0.90216749       1.26621236       2.28797791
H        0.08853884       2.48429468       1.59232789
H        1.95836139       0.97536249       1.46095010
H        0.98731048      -0.30681218       2.23411999
H        2.69245577      -1.29161170       0.19203382
H        1.19681324      -2.32891848       0.64050819
H        1.55422866      -1.92012475      -1.07310727
H       -0.34048587       2.07289982      -1.95217700
H        0.48356754       2.77877493      -0.64681790
27
Properties=species:S:1:pos:R:3 smiles=CC1CC2CCC1CC=OC2 name=camphor config_type=start_19 pbc="F F F"
C       -1.50875672      -1.12032770       0.85389578
C       -0.69616366      -0.31166785      -0.15909835
C       -1.10678118      -0.89153791      -1.53992576
C       -0.84023617       1.20919317       0.01491080
C       -0.18073102       1.43284037       1.38783487
C        0.98436228       0.41107970       1.42801681
C        0.83815797      -0.34135677       0.04005011
C        1.68672491      -1.57890478      -0.10287795
C        1.23674884       0.76155483      -1.00760278
O        2.26518664       0.83500228      -1.65927126
C        0.10070064       1.83579534      -1.01219639
H       -2.57571837      -0.92517340       0.57561064
H       -1.44202397      -0.87244021       1.91839150
H       -1.26999043      -2.21392757       0.75045475
H       -0.54513394      -0.36534306      -2.34463656
H       -0.90432148      -1.97136287      -1.60966237
H       -2.17207336      -0.69549701      -1.73157556
H       -1.86923381       1.63519840      -0.05666058
H       -0.91893562       1.24404134       2.19798431
H        0.15925560       2.47156280       1.50353571
H        1.94598821       0.89664812       1.56654382
H        0.90660411      -0.34755152       2.22810809
H        2.72464495      -1.38086004       0.27916206
H        1.19867674      -2.48137517       0.49560166
H        1.76499980      -1.89240149      -1.21835613
H       -0.30935513       1.79082800      -2.05904351
H        0.43382275       2.85754379      -0.81460665
27
Properties=species:S:1:pos:R:3 smiles=CC1CC2CCC1CC=OC2 name=camphor config_type=start_20 pbc="F F F"
C       -1.47589645      -1.15604990       0.81458172
C       -0.69981553      -0.28987547      -0.16723830
C       -1.05868421      -0.82587261      -1.54764218
C       -0.85600268       1.19637961       0.03486433
C       -0.20989606       1.42332589       1.40633446
C        1.01003748       0.47345497       1.37452382
C        0.86064183      -0.28646666       0.03503997
C        1.58685300      -1.62042561      -0.07119190
C        1.24194569       0.75868485      -0.97588841
O        2.22463877       0.79440390      -1.69902702
C        0.14165368       1.80145883      -0.97315889
H       -2.56278207      -1.30613948       0.49651535
H       -1.45181146      -0.71244456       1.82668563
H       -0.91932526      -2.18006575       0.81730782
H       -0.62466108      -0.22099529      -2.37898674
H       -0.63762039      -1.90063228      -1.59854670
H       -2.20155405      -0.90416614      -1.69118830
H       -1.90754775       1.50023262      -0.04191911
H       -0.91038029       1.08848416       2.20125844
H        0.03706116       2.47879686       1.60530055
H        1.98579671       1.04834779       1.46011461
H        0.99553342      -0.22254928       2.22886429
H        2.65650193      -1.49139356       0.16963795
H        1.12805576      -2.30605641       0.69246678
H        1.52693898      -2.01520730      -1.11578507
H       -0.17594261       1.94076248      -2.07168282
H        0.51261449       2.78816485      -0.61162646
27
Properties=species:S:1:pos:R:3 smiles=CC1CC2CCC1CC=OC2 name=camphor config_type=start_21 pbc="F F F"
C       -1.44757774      -1.14693408       0.89845971
C       -0.71060371      -0.32784951      -0.19112886
C       -1.14923616      -0.88165247      -1.52300862
C       -0.86813360       1.19910371       0.01882676
C       -0.21653537       1.43019856       1.36677879
C        0.99589839       0.46526104       1.32277110
C        0.85278768      -0.30960878      -0.00682215
C        1.57611072      -1.68287812      -0.09613625
C        1.27603932       0.78073487      -1.02143667
O        2.36265684       0.91437048      -1.55704531
C        0.09267967       1.80509448      -1.03210295
H       -2.52700064      -0.85763626       0.90590126
H       -1.00340549      -0.91103169       1.88613732
H       -1.36567811      -2.22274105       0.73122917
H       -0.80086123      -0.17623383      -2.40298801
H       -0.63522485      -1.91218128      -1.67681429
H       -2.31617114      -1.00492722      -1.56290391
H       -1.91186555       1.53320238      -0.08657159
H       -0.91255762       1.16492418       2.18549595
H        0.14098368       2.48317130       1.49411871
H        2.00960324       0.92190519       1.44482234
H        0.88377421      -0.23278173       2.17656980
H        2.70486900      -1.57481025       0.07549295
H        1.12330993      -2.32640426       0.71241422
H        1.41575627      -2.14016225      -1.09241240
H       -0.35617281       1.86842910      -2.04020312
H        0.47138213       2.77415799      -0.70379147
27
Properties=species:S:1:pos:R:3 smiles=CC1CC2CCC1CC=OC2 name=camphor config_type=start_22 pbc="F F F"
C       -1.41711103      -1.16375539       0.87348254
C       -0.66685589      -0.32835779      -0.18620596
C       -1.05679607      -0.78782921      -1.58047046
C       -0.86026573       1.20579038       0.01323999
C       -0.30100426       1.41524471       1.44502996
C        0.94030553       0.46515686       1.43365453
C        0.86224291      -0.28969405       0.05969513
C        1.63943245      -1.58285815      -0.06266146
C        1.27548496       0.77054421      -0.97306063
O        2.21526985       0.72725879      -1.76642284
C        0.14692677       1.80499173      -0.98973202
H       -2.49542969      -0.80137123       0.93879301
H       -0.95396359      -1.03256072       1.86686099
H       -1.41609167      -2.28290123       0.61420517
H       -0.46089005      -0.29157882      -2.36116628
H       -0.95830123      -1.89805460      -1.72025142
H       -2.11935444      -0.49764391      -1.85459126
H       -1.89380492       1.58398352      -0.15626509
H       -1.04906861       1.15403880       2.19173081
H       -0.01998818       2.43683503       1.65387132
H        1.91064450       1.00660762       1.43244487
H        0.98581752      -0.25584330       2.25220557
H        2.70214424      -1.34957683       0.15349287
H        1.25087249      -2.32946391       0.63855676
H        1.58559147      -1.94599890      -1.10055782
H       -0.23150390       1.92404238      -2.04295937
H        0.50689181       2.81660099      -0.67276248
27
Properties=species:S:1:pos:R:3 smiles=CC1CC2CCC1CC=OC2 name=camphor config_type=start_23 pbc="F F F"
C       -1.46855153      -1.12066368       0.88011673
C       -0.71245654      -0.32989414      -0.18438364
C       -1.12559119      -0.86565888      -1.58726693
C       -0.87043170       1.17905362       0.03098087
C       -0.22339037       1.40063826       1.39190829
C        1.05542196       0.48290042       1.35553591
C        0.86287550      -0.32257833       0.00829970
C        1.57702020      -1.65849475      -0.07565463
C        1.26421240       0.77560615      -0.99612300
O        2.31744835       0.90453128      -1.59003119
C        0.08896871       1.78206086      -1.02037817
H       -2.54230960      -0.83487124       0.83350016
H       -1.07927265      -0.89778842       1.93290172
H       -1.33442360      -2.20819368       0.69816576
H       -0.47557909      -0.55089482      -2.43045779
H       -1.04596635      -1.99417860      -1.54547890
H       -2.19112404      -0.58085117      -1.78913731
H       -1.92238201       1.52198872      -0.10983626
H       -0.91929423       1.16452156       2.21266486
H        0.05445444       2.47064013       1.54931689
H        1.97518304       1.08143193       1.37289885
H        1.12324204      -0.20696789       2.22747546
H        2.67922603      -1.50017871       0.10790662
H        1.16320704      -2.37877472       0.65295393
H        1.44552468      -2.05971988      -1.08331666
H       -0.34480588       1.84121853      -2.01426490
H        0.49804133       2.77655976      -0.84120477
27
Properties=species:S:1:pos:R:3 smiles=CC1CC2CCC1CC=OC2 name=camphor config_type=start_24 pbc="F F F"
C       -1.47632698      -1.16601182       0.85955386
C       -0.71145936      -0.32047403      -0.16814905
C       -1.06875487      -0.78729919      -1.57108948
C       -0.85046501       1.21262552       0.01620325
C       -0.25174938       1.41467850       1.42277123
C        0.99235913       0.46139410       1.35311224
C        0.83671399      -0.30558430       0.05173279
C        1.68495909      -1.58272634      -0.04526015
C        1.21674772       0.73667096      -1.01516589
O        2.24678452       0.76423004      -1.67715576
C        0.13444434       1.81023551      -0.98672878
H       -2.54733690      -1.01271210       0.68592704
H       -1.21509251      -0.99721178       1.89785650
H       -1.26569476      -2.23309503       0.64155423
H       -0.47131041      -0.36262206      -2.35778170
H       -0.96177344      -1.89965881      -1.64760600
H       -2.09584091      -0.53137085      -1.75705291
H       -1.89005240       1.60385765      -0.11309372
H       -0.94835697       1.16445826       2.22676331
H        0.04118051       2.48088108       1.55720551
H        1.93817310       0.98999816       1.39008783
H        0.98096740      -0.24892820       2.19536563
H        2.76665516      -1.33912786      -0.07929635
H        1.49693295      -2.28420740       0.77287485
H        1.46905047      -2.07244286      -1.01746183
H       -0.31646859       2.03932296      -2.00153768
H        0.52863048       2.77938297      -0.59377764
