17
Properties=species:S:1:pos:R:3 smiles=CC(C)CC config_type=start_0 pbc="F F F"
C       -1.44699000       1.08925700      -0.51214700
C       -0.42318700      -0.04121100      -0.46859100
C       -0.93340300      -1.09211600       0.47032200
C        0.89267300       0.55252800      -0.07027700
C        1.91794200      -0.45028100       0.36012200
H       -2.48146700       0.72111000      -0.45193500
H       -1.27308200       1.76870400      -1.37657700
H       -1.27359100       1.68294300       0.41551600
H       -0.43532100      -0.46337900      -1.49819000
H       -2.03521900      -1.17584200       0.29621700
H       -0.48436400      -2.06244600       0.14294900
H       -0.77863600      -0.87252500       1.53235100
H        1.29556800       1.06352100      -0.97678600
H        0.74675700       1.28517400       0.73631400
H        1.67539700      -0.95546800       1.30489800
H        2.86471100       0.11789300       0.54542500
H        2.17221100      -1.16786100      -0.44961200
17
Properties=species:S:1:pos:R:3 smiles=CC(C)CC config_type=start_1 pbc="F F F"
C       -0.77022200       1.36904400      -0.28575500
C       -0.60055100       0.08796500       0.45238400
C       -1.18612100      -1.11549900      -0.19657700
C        0.87431600      -0.07631800       0.80866100
C        1.66153000      -0.27158900      -0.45444200
H       -0.06790300       2.10599500       0.18101700
H       -1.79068200       1.77447000      -0.11716500
H       -0.57128400       1.32430400      -1.36691200
H       -1.12238600       0.21093800       1.43592100
H       -0.94828100      -1.25181500      -1.25900000
H       -0.79038200      -2.01104900       0.34398700
H       -2.27772300      -1.11428300       0.00087400
H        0.91750400      -0.93049200       1.49885700
H        1.14669100       0.87264800       1.33947500
H        1.14739900       0.20246900      -1.32543100
H        2.67137800       0.18870000      -0.38101000
H        1.70671800      -1.36548800      -0.67488300
17
Properties=species:S:1:pos:R:3 smiles=CC(C)CC config_type=start_2 pbc="F F F"
C       -1.30989200      -1.03466800      -0.38656500
C       -0.38954400       0.14451700      -0.29541400
C       -1.07816600       1.44276700      -0.01012900
C        0.68568900      -0.18940900       0.71099900
C        2.02986300      -0.32316800       0.02294900
H       -1.12369500      -1.76511700       0.44126800
H       -1.13905500      -1.62460200      -1.32192700
H       -2.38043900      -0.78654100      -0.31981500
H        0.08856600       0.25080600      -1.30304200
H       -1.15073900       2.11406900      -0.89946100
H       -2.08784500       1.34863300       0.41267600
H       -0.45456500       2.00027300       0.73214300
H        0.51010200      -1.14091500       1.24623300
H        0.80268600       0.61249700       1.45946400
H        2.77374800      -0.66302400       0.76127900
H        2.27478000       0.66835700      -0.42879000
H        1.94850400      -1.05447700      -0.82186700
17
Properties=species:S:1:pos:R:3 smiles=CC(C)CC config_type=start_3 pbc="F F F"
C       -0.93615600       1.32092100       0.01117700
C       -0.35743700      -0.01593800      -0.39736900
C       -1.42654200      -1.07659100      -0.38997400
C        0.72205500      -0.47286200       0.57356900
C        2.03442400       0.18083400       0.17643500
H       -1.89301700       1.44556300      -0.55005100
H       -0.28113700       2.16355000      -0.25270400
H       -1.18069800       1.29146300       1.09558000
H        0.12088900       0.12954000      -1.37633800
H       -2.38900200      -0.66657000      -0.00612600
H       -1.13606200      -1.97809300       0.20720900
H       -1.56049900      -1.44873000      -1.43192200
H        0.83726400      -1.57148900       0.39390900
H        0.45188200      -0.26742900       1.61940000
H        2.18929700      -0.06072100      -0.88755200
H        2.81866800      -0.25430900       0.84380900
H        1.98607000       1.28086000       0.37094700
17
Properties=species:S:1:pos:R:3 smiles=CC(C)CC config_type=start_4 pbc="F F F"
C        1.74038800       0.72453900      -0.06579600
C        0.37021100       0.15342500      -0.35797800
C        0.54075900      -1.34004400      -0.48972200
C       -0.65008900       0.53796900       0.67533900
C       -2.01220700       0.05557200       0.24240800
H        1.76087500       1.30777900       0.87919100
H        2.50876800      -0.07901800       0.07277000
H        2.12509100       1.35622100      -0.90698500
H        0.03558600       0.62198500      -1.31802400
H        0.85079900      -1.71675600       0.50865200
H        1.38464900      -1.48793000      -1.21047900
H       -0.36712600      -1.86180900      -0.81110400
H       -0.40508200       0.20174400       1.69741600
H       -0.68659200       1.65250400       0.67530900
H       -2.67451300       0.90151000      -0.07503700
H       -2.54837800      -0.40334800       1.11121900
H       -1.97313900      -0.62434300      -0.62717900
17
Properties=species:S:1:pos:R:3 smiles=CC(C)CC config_type=start_5 pbc="F F F"
C       -1.14262900      -1.12969900      -0.19976500
C       -0.59669300       0.10573300       0.43641000
C       -0.87777500       1.32159500      -0.43785900
C        0.84224500       0.01916500       0.84632600
C        1.78511500      -0.27040200      -0.28516000
H       -1.97990200      -0.80897200      -0.86960600
H       -1.55638900      -1.80243700       0.58132100
H       -0.43017200      -1.69548400      -0.81286100
H       -1.17655800       0.29057900       1.37740200
H       -0.47410400       2.21618900       0.06583300
H       -0.42579600       1.11131800      -1.42020100
H       -1.99461500       1.39211200      -0.47856300
H        1.12028100       1.01943300       1.24758800
H        0.93874000      -0.78719800       1.59160000
H        1.55688400      -1.29111900      -0.65340600
H        1.59448000       0.48684100      -1.07304000
H        2.81688600      -0.17765500       0.08398000
17
Properties=species:S:1:pos:R:3 smiles=CC(C)CC config_type=start_6 pbc="F F F"
C       -0.71679500       1.49247100      -0.04509900
C       -0.39793500       0.09007000       0.41703800
C       -1.64331700      -0.78257200       0.27852900
C        0.63666700      -0.57184000      -0.43753000
C        2.05423500      -0.27466900      -0.05174800
H       -1.68018800       1.82368900       0.37064300
H       -0.72411900       1.61246700      -1.13462900
H        0.07655500       2.17308600       0.34307100
H       -0.16096700       0.14135000       1.48686600
H       -1.85612300      -0.81778100      -0.82050300
H       -2.49785000      -0.37749800       0.83574800
H       -1.36584900      -1.81666100       0.56092500
H        0.51395700      -1.68348000      -0.38178000
H        0.47119000      -0.20088400      -1.48145000
H        2.67865400      -1.04331500      -0.57655600
H        2.18841500      -0.46940900       1.02177100
H        2.42347000       0.70497400      -0.38529700
17
Properties=species:S:1:pos:R:3 smiles=CC(C)CC config_type=start_7 pbc="F F F"
C       -0.73764400       1.38993300       0.39831500
C       -0.49649100       0.23450700      -0.53197900
C       -1.31144400      -0.94651300      -0.08335000
C        0.95593300      -0.09063300      -0.72777100
C        1.65293200      -0.52071400       0.52722900
H       -0.14895100       1.34293200       1.32701200
H       -1.81314400       1.33254800       0.70269200
H       -0.60986600       2.36524800      -0.13638800
H       -0.88579500       0.54697300      -1.53392500
H       -1.97904300      -0.65817900       0.76507500
H       -0.70353400      -1.79893000       0.26264700
H       -1.98951500      -1.31888700      -0.88760900
H        1.01492000      -0.88308500      -1.49719800
H        1.46776000       0.80069700      -1.11534100
H        2.73503500      -0.63720100       0.26664500
H        1.24463000      -1.43963700       0.97607000
H        1.60421800       0.28094100       1.28787500
17
Properties=species:S:1:pos:R:3 smiles=CC(C)CC config_type=start_8 pbc="F F F"
C       -1.05189700       0.60493700       1.07789400
C       -0.54840400       0.42507700      -0.31763700
C       -1.05747800      -0.88510300      -0.87708700
C        0.93444200       0.58966900      -0.46367300
C        1.74763600      -0.38713800       0.33355300
H       -1.54742800      -0.33851400       1.42139900
H       -0.26887600       0.81002200       1.82679700
H       -1.81863000       1.40065100       1.18365700
H       -1.01869400       1.22798400      -0.94131100
H       -0.31143900      -1.69027000      -0.84210500
H       -1.90250000      -1.23380600      -0.23028900
H       -1.51319000      -0.74576100      -1.88843800
H        1.16729800       0.46224600      -1.54774500
H        1.18901600       1.64015000      -0.21108600
H        1.21165200      -0.82823500       1.18261600
H        2.10803100      -1.20965600      -0.33654000
H        2.68046300       0.15774900       0.62999600
17
Properties=species:S:1:pos:R:3 smiles=CC(C)CC config_type=start_9 pbc="F F F"
C       -0.64537500       1.26585700      -0.37381100
C       -0.50828700       0.03777900       0.46728300
C       -1.62616400      -0.91919400       0.06549000
C        0.81837600      -0.64041100       0.39311100
C        1.90577600       0.16417100      -0.25001100
H       -1.03532600       2.09545800       0.27029300
H       -1.41863500       1.14065400      -1.17451000
H        0.29858200       1.61004000      -0.83844900
H       -0.70067600       0.26947200       1.54488000
H       -2.54086300      -0.75291600       0.69025700
H       -1.81264700      -0.77972500      -1.01087000
H       -1.32113000      -1.97947400       0.21012500
H        0.68394800      -1.56662400      -0.22147000
H        1.21304600      -0.91842000       1.40424000
H        2.84497300      -0.43439000      -0.12634600
H        1.76250400       0.28272400      -1.33308600
H        2.08189800       1.12499800       0.28287400
17
Properties=species:S:1:pos:R:3 smiles=CC(C)CC config_type=start_10 pbc="F F F"
C       -1.29681400      -1.16226100      -0.26291800
C       -0.34620300       0.01867300      -0.43593900
C       -1.20128400       1.24285700      -0.13074600
C        0.73145800      -0.14449200       0.60085000
C        2.11976300       0.04510700       0.04823100
H       -2.28938100      -0.86090600      -0.68394100
H       -1.44842300      -1.24811800       0.83906100
H       -0.92358400      -2.07724500      -0.73421200
H        0.07074100       0.06441500      -1.46932300
H       -0.61943800       2.16082000      -0.27608300
H       -2.08503800       1.16085200      -0.81290400
H       -1.57438800       1.11143600       0.90930500
H        0.60983600       0.58636100       1.42917600
H        0.71348200      -1.14796900       1.08425500
H        2.81756800      -0.07214300       0.91658700
H        2.30870500       1.05766800      -0.34524800
H        2.41300000      -0.73505600      -0.67614900
17
Properties=species:S:1:pos:R:3 smiles=CC(C)CC config_type=start_11 pbc="F F F"
C       -1.75075800      -0.37366100       0.38804400
C       -0.54734600       0.03278800      -0.42187100
C       -0.21870600       1.44940900      -0.05713600
C        0.55364300      -0.95142100      -0.19780200
C        1.90040500      -0.33745600       0.03965300
H       -2.21611500       0.48480600       0.93229100
H       -1.45809700      -1.15019100       1.13761600
H       -2.49904800      -0.84808600      -0.28910900
H       -0.82184200       0.05276600      -1.50696800
H       -1.19794800       1.99277500      -0.01686700
H        0.34579100       1.95583200      -0.87096600
H        0.22228500       1.57843900       0.93749800
H        0.55838300      -1.65424200      -1.07056900
H        0.33098600      -1.59969500       0.68781600
H        1.92074800       0.74882500      -0.19537900
H        2.25000400      -0.46371300       1.08826200
H        2.62761600      -0.91717300      -0.58451100
17
Properties=species:S:1:pos:R:3 smiles=CC(C)CC config_type=start_12 pbc="F F F"
C       -1.51505400       1.02801800       0.42760800
C       -0.36468900       0.06411500       0.34417800
C       -0.84338300      -1.27171400      -0.17534100
C        0.75224800       0.51957700      -0.54744200
C        2.02674500      -0.12445300      -0.00950600
H       -1.31734300       1.95769200      -0.15385500
H       -1.78967200       1.27913000       1.48440000
H       -2.43880100       0.56822300      -0.00796600
H        0.00644500      -0.08845900       1.38430200
H       -0.63440600      -2.08598400       0.55265200
H       -1.91405700      -1.18765400      -0.43803400
H       -0.32728600      -1.57378800      -1.11347200
H        0.56408700       0.13973500      -1.58298100
H        0.90322300       1.60711600      -0.57930500
H        1.77611000      -1.16367600       0.29387100
H        2.31387600       0.43898500       0.91103100
H        2.80195800      -0.10686400      -0.79014000
17
Properties=species:S:1:pos:R:3 smiles=CC(C)CC config_type=start_13 pbc="F F F"
C       -0.83601000       1.25065500       0.24974700
C       -0.44577700      -0.18422300       0.40405000
C       -1.52643200      -1.07052900      -0.20857900
C        0.84527100      -0.58009300      -0.22040300
C        1.95605400       0.40721600      -0.08399100
H       -0.85246500       1.79935100       1.22706800
H       -0.24908600       1.81875700      -0.48493400
H       -1.89726300       1.31065100      -0.10527600
H       -0.33932900      -0.38129400       1.50123100
H       -1.76785000      -1.86957000       0.51322900
H       -1.17030200      -1.53212500      -1.14577000
H       -2.43355800      -0.44727300      -0.41578800
H        0.70050300      -0.87165500      -1.28533100
H        1.19060200      -1.51411500       0.29305800
H        2.27285000       0.51828900       0.96775700
H        2.83232700      -0.01379900      -0.63324900
H        1.72046500       1.35975500      -0.57281900
17
Properties=species:S:1:pos:R:3 smiles=CC(C)CC config_type=start_14 pbc="F F F"
C       -1.56697000      -1.04548000       0.30681700
C       -0.54913200      -0.07429800      -0.28149700
C       -0.72243900       1.31096500       0.32638100
C        0.81061100      -0.65029000      -0.02684000
C        1.91878800       0.36153000      -0.02294400
H       -1.06582500      -1.83298000       0.92139900
H       -2.29498700      -0.52051700       0.94291900
H       -2.05788600      -1.60207600      -0.52230000
H       -0.71488200       0.00518000      -1.38564900
H       -1.64077200       1.77066800      -0.06617400
H       -0.77121100       1.23309900       1.42019200
H        0.13570600       1.92010400       0.01269500
H        1.02401300      -1.38184500      -0.83421500
H        0.78170500      -1.20353000       0.92342900
H        2.87091900      -0.22044000       0.07429700
H        1.95048200       0.90448000      -0.97587400
H        1.89188000       1.02543200       0.86282900
17
Properties=species:S:1:pos:R:3 smiles=CC(C)CC config_type=start_15 pbc="F F F"
C       -1.26042700      -1.07112400       0.17513300
C       -0.36783500       0.11705000       0.40243800
C       -1.22074800       1.35049000       0.11920500
C        0.82535500       0.16589600      -0.50443700
C        2.03758400      -0.50578600       0.08249800
H       -2.06987500      -0.97837100       0.94482600
H       -1.81045300      -0.97520900      -0.79565100
H       -0.75135200      -2.04134800       0.28347900
H       -0.04374700       0.12102800       1.46955000
H       -0.53415700       2.21367700       0.29319800
H       -2.08150300       1.34380900       0.80814700
H       -1.52127600       1.28049600      -0.95389100
H        0.57505900      -0.20653100      -1.52520500
H        1.08894800       1.24801400      -0.62034700
H        2.41778300      -1.30659300      -0.58548700
H        1.83040800      -0.95658400       1.08418100
H        2.88623600       0.20108500       0.25410400
17
Properties=species:S:1:pos:R:3 smiles=CC(C)CC config_type=start_16 pbc="F F F"
C       -1.27014200      -1.22174400       0.02260900
C       -0.36782900      -0.07429600      -0.42622300
C       -1.23187200       1.16832700      -0.27524700
C        0.76181500      -0.01443500       0.56113900
C        2.12100400       0.09993300      -0.06105700
H       -1.56485800      -0.98274500       1.06085900
H       -2.16273500      -1.29409600      -0.64207900
H       -0.67368400      -2.13847200      -0.07202300
H       -0.03683300      -0.23327100      -1.47352900
H       -2.31021700       0.90720200      -0.41730600
H       -1.16107100       1.52566400       0.78002200
H       -1.00957900       1.94369600      -1.02016400
H        0.79798200      -0.89567800       1.24672800
H        0.65290000       0.86976500       1.23839500
H        2.38030000      -0.82202400      -0.64098100
H        2.85423600       0.14206000       0.77581800
H        2.22058300       1.02011500      -0.65696300
17
Properties=species:S:1:pos:R:3 smiles=CC(C)CC config_type=start_17 pbc="F F F"
C       -1.37117500      -1.09958300      -0.09207300
C       -0.36829000      -0.05321800       0.30829700
C       -1.10958100       1.26410200       0.45649500
C        0.75422700       0.10698400      -0.67694500
C        2.09675800      -0.21767300      -0.05269500
H       -0.96683000      -2.08443300       0.23736200
H       -1.65232500      -1.07670600      -1.14976900
H       -2.28264100      -0.90200200       0.52760100
H        0.07942900      -0.31416700       1.27889600
H       -0.55198600       1.85431700       1.20066200
H       -2.15583200       1.05599400       0.78245300
H       -1.12981600       1.71877900      -0.55506700
H        0.80664000       1.17204200      -1.01666500
H        0.55336100      -0.50628800      -1.58876000
H        1.98553800      -0.18427300       1.05767800
H        2.42435600      -1.22568500      -0.38507700
H        2.88816700       0.49181100      -0.33239400
17
Properties=species:S:1:pos:R:3 smiles=CC(C)CC config_type=start_18 pbc="F F F"
C       -0.95425900       1.44499100      -0.04539800
C       -0.41515700       0.02215900      -0.06743600
C       -1.50959800      -0.87641800       0.43874200
C        0.85497000      -0.07359500       0.73463200
C        2.02289900      -0.58170500      -0.10328900
H       -2.04884800       1.47222300      -0.12606200
H       -0.43855300       2.00340300      -0.84172200
H       -0.67547700       1.85985600       0.95612300
H       -0.15583300      -0.30103000      -1.10766000
H       -2.27196100      -0.34742900       1.04627200
H       -2.07097300      -1.26615400      -0.44807500
H       -1.14870500      -1.73465200       1.02063700
H        1.14754500       0.95909400       1.05431900
H        0.74946500      -0.65169900       1.66497800
H        1.97120600      -1.67190900      -0.24958000
H        2.97591300      -0.25070700       0.37091200
H        1.96736500      -0.00642800      -1.06147200
17
Properties=species:S:1:pos:R:3 smiles=CC(C)CC config_type=start_19 pbc="F F F"
C       -0.88513100       0.13123300       1.25997300
C       -0.61940800      -0.40534300      -0.11682400
C       -1.14872600       0.60319700      -1.09571800
C        0.79056900      -0.81136900      -0.37815300
C        1.82730100       0.10450800       0.22779300
H       -1.99578200       0.27398900       1.30911200
H       -0.62766700      -0.55448400       2.07663700
H       -0.48016300       1.15984800       1.41367900
H       -1.24195400      -1.32954400      -0.22682100
H       -1.80379000       0.12804500      -1.86643400
H       -1.80212500       1.36273900      -0.59878900
H       -0.33645800       1.11161000      -1.64297800
H        1.00725800      -1.84254800      -0.00297500
H        0.95213400      -0.79128900      -1.48547000
H        1.83213500       0.02224300       1.33612400
H        1.72000600       1.14939000      -0.10077500
H        2.81180000      -0.31222300      -0.10838000
17
Properties=species:S:1:pos:R:3 smiles=CC(C)CC config_type=start_20 pbc="F F F"
C       -0.91373600      -1.06852500      -0.46999000
C       -0.63704900       0.08495100       0.47324000
C       -1.09478700       1.34839200      -0.23672800
C        0.80703100       0.14362800       0.87398700
C        1.74421500      -0.40403900      -0.16804500
H       -0.22972800      -1.90396300      -0.26361500
H       -0.82684300      -0.71943300      -1.52752700
H       -1.95737600      -1.43470500      -0.30456300
H       -1.28016900      -0.04242300       1.38089100
H       -0.83985700       2.26233500       0.31690900
H       -0.69578000       1.30036500      -1.26010800
H       -2.20194200       1.30797500      -0.32764300
H        1.09729200       1.20977400       1.05395600
H        0.95335700      -0.44530300       1.81462200
H        2.63635500       0.26108500      -0.29469000
H        1.29108100      -0.48940400      -1.17071800
H        2.14793700      -1.41071000       0.11002000
17
Properties=species:S:1:pos:R:3 smiles=CC(C)CC config_type=start_21 pbc="F F F"
C       -0.95961000      -1.13625600      -0.02927000
C       -0.56614700       0.26311700      -0.39239300
C       -1.16501300       1.18593900       0.65373400
C        0.89579000       0.48678500      -0.54741500
C        1.76862100      -0.61483200      -0.03009500
H       -0.99013400      -1.83161100      -0.90585900
H       -0.40392700      -1.55458300       0.82938100
H       -2.02228900      -1.08017300       0.32073400
H       -1.04608200       0.49349200      -1.37718400
H       -0.39274600       1.90663500       1.00858000
H       -1.60323700       0.61216700       1.50663300
H       -2.00562400       1.78151300       0.23813400
H        1.16124000       1.40807100       0.02894800
H        1.21938300       0.70077500      -1.59588300
H        1.56927100      -1.59200500      -0.49499100
H        1.71911800      -0.69169000       1.06622200
H        2.82138500      -0.33734200      -0.27927600
17
Properties=species:S:1:pos:R:3 smiles=CC(C)CC config_type=start_22 pbc="F F F"
C       -0.78783200       1.12268400      -0.53839500
C       -0.44987800       0.04755700       0.45230500
C       -1.53769300      -1.00656100       0.36290400
C        0.88524100      -0.58812300       0.23799000
C        1.93143800       0.32900500      -0.32292700
H       -0.89707900       0.75438800      -1.56548000
H       -1.79078800       1.52555600      -0.24644000
H       -0.08690500       1.96028800      -0.41631300
H       -0.51072100       0.47729100       1.47899500
H       -1.61836700      -1.54756200       1.34064700
H       -1.36557600      -1.71401900      -0.47941100
H       -2.53226900      -0.51907400       0.20245400
H        1.26773400      -0.90644700       1.24073700
H        0.75785800      -1.49037100      -0.37544400
H        1.63168600       0.85853100      -1.23278300
H        2.79942800      -0.31523800      -0.61555800
H        2.30372500       1.01209600       0.47671900
17
Properties=species:S:1:pos:R:3 smiles=CC(C)CC config_type=start_23 pbc="F F F"
C       -1.39516400      -1.07595500      -0.36148300
C       -0.42886300       0.10304500      -0.38712100
C       -1.11375800       1.25514600       0.34269400
C        0.75902200      -0.31373700       0.42505500
C        2.08059600       0.02218800      -0.22296300
H       -0.82807700      -2.01229300      -0.54730700
H       -1.82274600      -1.07951800       0.66600900
H       -2.14965200      -0.95340300      -1.15214800
H       -0.18024800       0.42720100      -1.40869600
H       -0.48550200       2.15408600       0.13484000
H       -1.14143400       1.04695900       1.44090900
H       -2.16507700       1.38107000       0.02675800
H        0.78463700      -1.41118200       0.63587900
H        0.76579800       0.18116200       1.42283200
H        2.19114400      -0.43781500      -1.22623800
H        2.86924800      -0.41210000       0.44293400
H        2.26007600       1.12514500      -0.23195400
17
Properties=species:S:1:pos:R:3 smiles=CC(C)CC config_type=start_24 pbc="F F F"
C       -1.25342700      -1.07038300      -0.37300900
C       -0.60329900       0.00906500       0.45364000
C       -0.78833300       1.30967800      -0.27371800
C        0.81114600      -0.29119900       0.82749900
C        1.80960500      -0.03674600      -0.26056200
H       -2.31568600      -0.76970500      -0.52105300
H       -0.74802700      -1.18030800      -1.34631800
H       -1.27072300      -1.99616000       0.22054000
H       -1.19544400       0.08243400       1.39632300
H       -1.89415900       1.48858100      -0.29250500
H       -0.44927900       1.26639300      -1.33826700
H       -0.36713000       2.18318400       0.27072900
H        1.03746500       0.27024700       1.76847300
H        0.85986000      -1.36233900       1.10437600
H        1.44219300       0.57652700      -1.08982700
H        2.70138100       0.50006100       0.15248300
H        2.22385700      -0.97933000      -0.69880300
