18
Properties=species:S:1:pos:R:3 smiles=C1CCCCC1 config_type=start_0 pbc="F F F"
C        0.36706900      -1.29285200      -0.34015000
C        1.45173700      -0.29945100      -0.05358900
C        0.95753800       1.12423800       0.01017400
C       -0.48168600       1.21626900      -0.42253100
C       -1.38311900       0.34420600       0.40866500
C       -0.88751300      -1.07533100       0.45323000
H        0.08424500      -1.24448000      -1.41347200
H        0.74811900      -2.30993000      -0.08892200
H        1.95744300      -0.53066000       0.90928000
H        2.22922900      -0.42306300      -0.84936700
H        1.55717500       1.72802400      -0.71765100
H        1.12057200       1.58956300       0.99162600
H       -0.81857900       2.26328000      -0.30121000
H       -0.55527300       0.90859300      -1.47450100
H       -2.38560900       0.35621500      -0.08959200
H       -1.56667500       0.76694900       1.42636600
H       -0.74701100      -1.34144500       1.52247600
H       -1.64766200      -1.78012600       0.02916900
18
Properties=species:S:1:pos:R:3 smiles=C1CCCCC1 config_type=start_1 pbc="F F F"
C        1.36322600      -0.20516400      -0.38163800
C        0.52896100      -1.32656200       0.20423700
C       -0.89459600      -1.08135300      -0.28069300
C       -1.35666600       0.17612100       0.44446200
C       -0.53045800       1.30704100      -0.13817700
C        0.91739200       1.09088700       0.24866700
H        2.42947500      -0.38876300      -0.17995900
H        1.12949500      -0.11638300      -1.47194900
H        0.49094400      -1.26771700       1.30827200
H        0.88096300      -2.29947600      -0.17491100
H       -0.89860700      -0.87116700      -1.37881200
H       -1.55627900      -1.93842000      -0.10242500
H       -1.10608700       0.05333800       1.52801900
H       -2.43978400       0.33985000       0.33596000
H       -0.56406300       1.16154100      -1.24796600
H       -0.90561500       2.30343500       0.14012400
H        1.03133800       1.11873500       1.33973900
H        1.48036000       1.94405600      -0.19294900
18
Properties=species:S:1:pos:R:3 smiles=C1CCCCC1 config_type=start_2 pbc="F F F"
C        0.89610000      -1.02279300       0.40687500
C       -0.47644700      -1.36057700      -0.09635400
C       -1.42494400      -0.20295800      -0.03590700
C       -0.79441000       1.07184900      -0.57860000
C        0.41583400       1.33316400       0.31178400
C        1.42440500       0.29047400      -0.16003500
H        0.81568000      -0.86482000       1.51217500
H        1.60345000      -1.82957200       0.18331800
H       -0.46458500      -1.87269800      -1.09102000
H       -0.87229600      -2.11544100       0.63258800
H       -1.60821100      -0.00063500       1.05011800
H       -2.34822300      -0.40862100      -0.59069200
H       -0.42955400       0.91283600      -1.62515300
H       -1.48930300       1.91425100      -0.50224100
H        0.79243500       2.35805900       0.24201100
H        0.10450800       1.06720300       1.35218200
H        2.42714200       0.45114800       0.26015600
H        1.42841800       0.27913000      -1.27120300
18
Properties=species:S:1:pos:R:3 smiles=C1CCCCC1 config_type=start_3 pbc="F F F"
C       -0.38798400       1.31277000      -0.15796400
C       -1.41610700       0.23639500      -0.22133000
C       -0.89502600      -1.15376800       0.01066200
C        0.32479200      -0.99372800       0.91146000
C        1.39686800      -0.47212900      -0.03827700
C        1.01377300       0.91870100      -0.42966600
H       -0.67764600       2.07299300      -0.92974800
H       -0.45101200       1.85990600       0.81695600
H       -2.16526200       0.42533700       0.59094700
H       -2.03491500       0.26222500      -1.15435900
H       -1.63117700      -1.83681800       0.45559800
H       -0.57713700      -1.54954700      -0.98665700
H        0.14657600      -0.14055500       1.61216500
H        0.61070500      -1.92423700       1.41267200
H        2.40978200      -0.57034500       0.37696800
H        1.34663300      -1.14575100      -0.92880400
H        1.67843200       1.60670600       0.15367600
H        1.30870300       1.09184600      -1.49429900
18
Properties=species:S:1:pos:R:3 smiles=C1CCCCC1 config_type=start_4 pbc="F F F"
C        0.36141400      -1.38040000      -0.24528100
C       -0.98635800      -0.99668100       0.35977400
C       -1.34249100       0.36381900      -0.18060700
C       -0.31854300       1.41882300       0.20721400
C        1.00574600       0.95042400      -0.38577000
C        1.33967800      -0.34976000       0.30811400
H        0.66017200      -2.41030100       0.00668600
H        0.26096500      -1.22562600      -1.34931900
H       -0.92602800      -1.01357800       1.46151200
H       -1.74984800      -1.70748400      -0.00873300
H       -1.28970200       0.30059100      -1.29559700
H       -2.32447100       0.68460800       0.18989800
H       -0.63743500       2.38996300      -0.18971300
H       -0.14393100       1.46201500       1.29337300
H        0.84179900       0.70030200      -1.46371100
H        1.78172700       1.71891000      -0.29039200
H        1.08065700      -0.24989100       1.38602900
H        2.38664900      -0.65573600       0.19652300
18
Properties=species:S:1:pos:R:3 smiles=C1CCCCC1 config_type=start_5 pbc="F F F"
C        1.00215600      -1.00135700      -0.31195200
C        1.38397800       0.43155200      -0.18634800
C        0.26771100       1.41177700      -0.15627100
C       -1.02331000       0.91089400       0.40132400
C       -1.39614400      -0.46964800      -0.10850900
C       -0.28693200      -1.38209900       0.34095100
H        1.80759400      -1.59408200       0.19317200
H        0.96091100      -1.35890600      -1.37081900
H        2.02045900       0.67335800      -1.07647400
H        2.05365000       0.63023000       0.68861800
H        0.05875300       1.82108000      -1.17095900
H        0.55900800       2.30205700       0.45657100
H       -1.06465300       0.95724500       1.51825900
H       -1.82792200       1.60134500       0.04601600
H       -1.49541900      -0.42465600      -1.20260900
H       -2.34657600      -0.75749000       0.40552500
H       -0.19400100      -1.30422800       1.43987700
H       -0.47926100      -2.44707400       0.09363000
18
Properties=species:S:1:pos:R:3 smiles=C1CCCCC1 config_type=start_6 pbc="F F F"
C        0.35689700      -1.40495400      -0.04234500
C        1.25562200      -0.34796100      -0.55071800
C        0.96465800       1.05691900      -0.18782700
C       -0.33431200       1.29813800       0.52049500
C       -1.34471400       0.39239000      -0.18016000
C       -1.00678800      -0.98169900       0.38671300
H        0.19670400      -2.17770300      -0.83925700
H        0.82048600      -1.98965900       0.79354900
H        1.34637800      -0.43724500      -1.66402200
H        2.28754700      -0.58529400      -0.18239000
H        0.94044200       1.69767900      -1.10668200
H        1.77135400       1.51711300       0.43774400
H       -0.29108400       1.02423600       1.58858100
H       -0.62092400       2.35657000       0.44747600
H       -2.33655300       0.69343300       0.17810700
H       -1.21519900       0.42823000      -1.27284100
H       -1.80434400      -1.71168600       0.17822800
H       -0.98616800      -0.82850500       1.49534700
18
Properties=species:S:1:pos:R:3 smiles=C1CCCCC1 config_type=start_7 pbc="F F F"
C        1.41208800       0.28100700      -0.12183600
C        0.92435200      -1.00902700       0.52209100
C       -0.35649200      -1.37402400      -0.22020200
C       -1.38856300      -0.37276600       0.28534700
C       -1.00495200       0.94292000      -0.37783300
C        0.38244200       1.36556600       0.00474200
H        2.33727000       0.65581100       0.34539200
H        1.54595900       0.07459300      -1.20730500
H        0.70062700      -0.79697200       1.58591200
H        1.67036400      -1.79887500       0.36932500
H       -0.16312200      -1.16544100      -1.30347300
H       -0.66446800      -2.41287500      -0.04789400
H       -1.23874700      -0.23434900       1.37971600
H       -2.41484100      -0.63239100       0.00696200
H       -1.72122400       1.70084800      -0.03003000
H       -1.07947000       0.77288700      -1.46980600
H        0.67952600       2.16453300      -0.72135700
H        0.37925100       1.83855600       1.00024900
18
Properties=species:S:1:pos:R:3 smiles=C1CCCCC1 config_type=start_8 pbc="F F F"
C       -0.64305700      -1.25510600       0.39586400
C        0.80779400      -1.20479800       0.11904900
C        1.41503300       0.08752600      -0.25885700
C        0.49937100       1.18798000      -0.64956400
C       -0.68462900       1.25321600       0.27245400
C       -1.43896300      -0.02945000       0.10716100
H       -0.85554900      -1.55660500       1.45550500
H       -1.12108600      -2.07265800      -0.20567600
H        1.07311300      -2.00418700      -0.62113900
H        1.33830000      -1.54835400       1.04836000
H        2.09302600       0.49630500       0.53560500
H        2.10292300      -0.07626900      -1.12901800
H        1.03929900       2.16263700      -0.53546300
H        0.18048500       1.15362700      -1.70913000
H       -0.30439300       1.34271000       1.30998600
H       -1.33070400       2.09475000      -0.02626700
H       -2.30369500       0.02276000       0.81840500
H       -1.86726900      -0.05408300      -0.92727400
18
Properties=species:S:1:pos:R:3 smiles=C1CCCCC1 config_type=start_9 pbc="F F F"
C        1.04768900      -0.99844800      -0.30517900
C        1.24503300       0.27094900       0.48921300
C        0.34248200       1.34881200      -0.08132200
C       -1.10326200       0.99949600       0.23738900
C       -1.20087400      -0.50684800       0.44942000
C       -0.40765400      -1.09796100      -0.71071300
H        1.67956700      -0.97931500      -1.20365000
H        1.35478900      -1.86776700       0.32437000
H        2.30872100       0.53756300       0.45875200
H        0.99132200       0.14310500       1.56577900
H        0.64514300       2.32396700       0.34843300
H        0.53936000       1.33370300      -1.18168100
H       -1.65970500       1.17418600      -0.72010300
H       -1.50632200       1.57650600       1.08097600
H       -0.77859500      -0.83913300       1.40241500
H       -2.25486200      -0.81649100       0.42161800
H       -0.71610000      -2.12417500      -0.95108600
H       -0.52673200      -0.47814800      -1.62463200
18
Properties=species:S:1:pos:R:3 smiles=C1CCCCC1 config_type=start_10 pbc="F F F"
C       -0.26254100       1.25266800       0.64439500
C        0.98054500       1.03070900      -0.21091100
C        1.36671900      -0.41632200       0.02929900
C        0.27849900      -1.24977600      -0.63797200
C       -0.98607500      -1.02226500       0.17972000
C       -1.36435200       0.42962400      -0.01249100
H       -0.06985900       0.82164100       1.65775900
H       -0.50070400       2.32705200       0.67342400
H        1.78363300       1.73900000       0.04288000
H        0.67880300       1.08253300      -1.28760600
H        1.25094900      -0.62098100       1.12301000
H        2.37071500      -0.66430800      -0.33671300
H        0.55545100      -2.32362600      -0.66411200
H        0.05505800      -0.86291500      -1.65218800
H       -0.68250000      -1.13968200       1.24159300
H       -1.78884100      -1.71949900      -0.11374200
H       -2.36163900       0.64969700       0.42157100
H       -1.30386100       0.68645200      -1.09791700
18
Properties=species:S:1:pos:R:3 smiles=C1CCCCC1 config_type=start_11 pbc="F F F"
C       -1.08422000      -0.83995400      -0.19822700
C       -1.29619600       0.55260600       0.37599200
C       -0.19698400       1.41723800      -0.23011300
C        1.10942100       0.84463800       0.30498300
C        1.30598000      -0.51441900      -0.35289700
C        0.24631200      -1.42787600       0.25211400
H       -1.93135100      -1.51184900      -0.01991400
H       -0.96745100      -0.67792900      -1.30071500
H       -2.26647200       0.90527600      -0.00302700
H       -1.25930900       0.55644700       1.48148400
H       -0.22466300       1.24009800      -1.33296700
H       -0.33087800       2.47792100       0.01735100
H        0.98249800       0.68717400       1.40368100
H        1.93552300       1.53975800       0.10198400
H        1.03709200      -0.40108600      -1.43259000
H        2.32447100      -0.90429100      -0.21905100
H        0.33019500      -1.49919900       1.34806000
H        0.28603100      -2.44455200      -0.19614900
18
Properties=species:S:1:pos:R:3 smiles=C1CCCCC1 config_type=start_12 pbc="F F F"
C       -1.42323000      -0.29018800      -0.09278600
C       -0.40393400      -1.34407200       0.28689800
C        0.82136400      -1.02740100      -0.56851500
C        1.43320500       0.20221600       0.09207500
C        0.44689100       1.33777800      -0.14835600
C       -0.89879900       1.03042900       0.44829900
H       -1.42476200      -0.23191400      -1.21048100
H       -2.42562400      -0.50914400       0.29844600
H       -0.12116500      -1.18232400       1.35839200
H       -0.76076900      -2.37156700       0.15009800
H        1.48285900      -1.90107800      -0.53937600
H        0.54594200      -0.73874300      -1.59979800
H        2.39530000       0.48934300      -0.36757200
H        1.50989800      -0.02005700       1.16525000
H        0.84364400       2.28713900       0.23251700
H        0.31706500       1.43241800      -1.25078800
H       -1.57151000       1.86626600       0.20960900
H       -0.76637600       0.97089900       1.53608800
18
Properties=species:S:1:pos:R:3 smiles=C1CCCCC1 config_type=start_13 pbc="F F F"
C       -0.88294300      -1.17828800       0.05285400
C       -1.40160300       0.17607300       0.40308600
C       -0.58160700       1.24529800      -0.26517900
C        0.87113700       1.20110000       0.12863200
C        1.43654200      -0.17978200       0.12392300
C        0.52665500      -1.23588900      -0.41005800
H       -0.99735300      -1.82012500       0.96342900
H       -1.51313400      -1.59214000      -0.77694600
H       -1.45936500       0.34759400       1.50600300
H       -2.44655900       0.30061700       0.01985800
H       -0.71768000       1.13215700      -1.35149600
H       -0.96624200       2.24442000       0.05260500
H        0.99325100       1.60968500       1.14818300
H        1.41326300       1.88305000      -0.57400200
H        1.82031900      -0.48494100       1.12926000
H        2.33456900      -0.16939200      -0.54491700
H        0.95704200      -2.21617400      -0.07925000
H        0.61370800      -1.26326200      -1.52598500
18
Properties=species:S:1:pos:R:3 smiles=C1CCCCC1 config_type=start_14 pbc="F F F"
C        1.09363900      -0.95980300       0.07382700
C       -0.23410800      -1.22077600       0.77770800
C       -1.27434700      -0.61788800      -0.11689100
C       -1.08748500       0.81597000      -0.43573100
C        0.31128600       1.32391100      -0.48568600
C        1.31498500       0.53455900       0.28247600
H        1.91276500      -1.57115700       0.46650500
H        0.93816100      -1.07912100      -1.02680900
H       -0.43461500      -2.28816600       0.92376600
H       -0.26321300      -0.67677300       1.74688700
H       -2.27986300      -0.78488000       0.31210000
H       -1.24061700      -1.19939400      -1.07399300
H       -1.73840500       1.40830300       0.25753300
H       -1.53688200       0.99593700      -1.44735400
H        0.66038600       1.48842100      -1.53678200
H        0.29113200       2.35021000      -0.03736600
H        1.23249400       0.68833700       1.37804400
H        2.33468700       0.79231100      -0.05823500
18
Properties=species:S:1:pos:R:3 smiles=C1CCCCC1 config_type=start_15 pbc="F F F"
C       -0.76290600       0.82660300      -0.86696200
C        0.60453500       1.28259500      -0.42033100
C        1.42084200       0.05179300      -0.15427800
C        0.78452300      -0.88560500       0.84634100
C       -0.64842600      -1.17205200       0.50858700
C       -1.46287600       0.08326000       0.26607500
H       -1.37790400       1.65500100      -1.24444000
H       -0.60799400       0.03513800      -1.64469900
H        1.05536500       1.80082700      -1.28356900
H        0.54519600       1.95150400       0.46503700
H        1.53962700      -0.48755200      -1.10784500
H        2.41985300       0.32372500       0.21271100
H        1.33689800      -1.85449800       0.73685300
H        0.93175000      -0.57622700       1.89488600
H       -0.63573500      -1.70397400      -0.47666800
H       -1.13336500      -1.77733900       1.28054400
H       -1.57676600       0.69829600       1.16685600
H       -2.43261500      -0.25149600      -0.17909600
18
Properties=species:S:1:pos:R:3 smiles=C1CCCCC1 config_type=start_16 pbc="F F F"
C        0.69640700      -1.26438000      -0.01588700
C        1.43357500       0.07184300      -0.03079300
C        0.56941800       1.09812600      -0.70836100
C       -0.75606400       1.23748500       0.03093500
C       -1.41602900      -0.12724100      -0.04339200
C       -0.55304500      -1.02415100       0.82538100
H        0.37116100      -1.47846300      -1.06586700
H        1.29744700      -2.06912700       0.42668700
H        2.36093000      -0.05566500      -0.62648900
H        1.63019400       0.37725400       1.01015700
H        1.06422300       2.07528000      -0.78150100
H        0.29973800       0.67230300      -1.70827100
H       -0.59409600       1.43965900       1.11962000
H       -1.37426900       2.02680900      -0.41484000
H       -2.47078100      -0.12076100       0.24728700
H       -1.31389700      -0.46149700      -1.10320600
H       -0.19443800      -0.44661400       1.71020800
H       -1.05047500      -1.95086100       1.12833200
18
Properties=species:S:1:pos:R:3 smiles=C1CCCCC1 config_type=start_17 pbc="F F F"
C        1.23310000       0.72838200       0.18165200
C        1.24637100      -0.76639600       0.10295800
C        0.01739500      -1.14568100      -0.71406300
C       -1.14696600      -0.88397200       0.23310400
C       -1.27772800       0.62005200       0.33363600
C       -0.08028500       1.35153200      -0.20408300
H        1.48128900       1.07753600       1.21513600
H        2.01874200       1.10150500      -0.52182900
H        1.10229400      -1.14739400       1.14277200
H        2.16201400      -1.20549900      -0.31063800
H       -0.09287900      -0.50194300      -1.61319800
H        0.05319800      -2.18135200      -1.07209100
H       -2.05873100      -1.38956800      -0.10066500
H       -0.86582500      -1.31952300       1.22472200
H       -1.36696300       0.86790500       1.41995400
H       -2.18094500       0.88759900      -0.23762800
H       -0.17333400       1.52223400      -1.30679900
H       -0.07074700       2.38458400       0.22705900
18
Properties=species:S:1:pos:R:3 smiles=C1CCCCC1 config_type=start_18 pbc="F F F"
C       -0.69267300       1.25648600      -0.16744900
C        0.72550100       1.18221700       0.37663500
C        1.41293400       0.05149600      -0.32788300
C        0.70679200      -1.24191700      -0.09129700
C       -0.77290400      -1.20494300      -0.25088900
C       -1.39976800       0.02487500       0.35266500
H       -1.23659000       2.13396700       0.21698300
H       -0.64378100       1.26949400      -1.27158200
H        1.19681300       2.15538700       0.18731800
H        0.67391700       0.99396700       1.47790900
H        2.43249200      -0.04409300       0.12432000
H        1.56930200       0.31088200      -1.38319900
H        1.12402300      -2.02668900      -0.76956000
H        0.91065500      -1.53912100       0.96891700
H       -1.12976700      -1.33670800      -1.28557700
H       -1.19718300      -2.07353300       0.31452300
H       -2.46089100       0.10202100       0.08277000
H       -1.21887100      -0.01378900       1.44539600
18
Properties=species:S:1:pos:R:3 smiles=C1CCCCC1 config_type=start_19 pbc="F F F"
C        0.56246300      -1.20127500       0.48180300
C        1.43817500      -0.13980500      -0.13462200
C        0.77155200       1.19433800       0.14915200
C       -0.53808700       1.16817900      -0.63146000
C       -1.44377300       0.21998100       0.14019900
C       -0.83688000      -1.16519500      -0.05902300
H        0.97582000      -2.20207200       0.26225500
H        0.60794800      -1.06110300       1.58465800
H        1.51268600      -0.24314000      -1.23621300
H        2.42521500      -0.14190800       0.35053700
H        0.50233800       1.17709900       1.23523400
H        1.40053600       2.05459900      -0.10377200
H       -0.39251100       0.68387900      -1.62852700
H       -0.96625400       2.17371700      -0.73947900
H       -2.48572900       0.24403500      -0.19620700
H       -1.32959400       0.51428000       1.20957700
H       -0.76821500      -1.34807600      -1.15258600
H       -1.43569000      -1.92753300       0.46847500
18
Properties=species:S:1:pos:R:3 smiles=C1CCCCC1 config_type=start_20 pbc="F F F"
C        0.45760600       1.22455100       0.59135800
C       -0.87299000       1.16717100      -0.12248500
C       -1.44057400      -0.20861600       0.22146600
C       -0.57146700      -1.15829100      -0.59342300
C        0.86206900      -1.14193200      -0.17931800
C        1.43790100       0.20525400       0.08960900
H        0.89964000       2.22544200       0.52649400
H        0.24492500       0.94154100       1.65414700
H       -1.50753000       1.98498300       0.23492300
H       -0.78996300       1.20150700      -1.21844100
H       -2.47217800      -0.32713400      -0.14403700
H       -1.37013900      -0.41096000       1.31347200
H       -0.97770700      -2.17590900      -0.51739300
H       -0.60325700      -0.75039300      -1.63635900
H        1.02696100      -1.82993600       0.68711100
H        1.44153300      -1.59830200      -1.02207500
H        2.20133700       0.08310900       0.90100300
H        2.03383500       0.56791500      -0.78605200
18
Properties=species:S:1:pos:R:3 smiles=C1CCCCC1 config_type=start_21 pbc="F F F"
C       -1.22675800       0.70663700      -0.40523000
C       -1.26985000      -0.60060000       0.31125400
C       -0.05854800      -1.45552600       0.13695900
C        1.24409500      -0.77004700       0.02411600
C        1.27175500       0.68982900      -0.17094300
C        0.00364000       1.43486000       0.06323300
H       -1.19851400       0.59153500      -1.49684200
H       -2.09441700       1.30862700      -0.08337300
H       -2.16214000      -1.16621300      -0.06341900
H       -1.50608500      -0.39626300       1.38660100
H       -0.24831500      -2.13374900      -0.73539500
H       -0.06723300      -2.15629200       1.01374600
H        1.86489500      -1.05126900       0.91527600
H        1.80843400      -1.23873100      -0.82570000
H        1.63561400       0.97161600      -1.19289800
H        2.03349400       1.14889900       0.51220900
H       -0.05741900       1.72236900       1.12454900
H        0.02735000       2.39431600      -0.51414300
18
Properties=species:S:1:pos:R:3 smiles=C1CCCCC1 config_type=start_22 pbc="F F F"
C        0.67316500      -1.22556800      -0.23333300
C        1.43788400       0.03512200       0.16040300
C        0.68001800       1.16570900      -0.53180100
C       -0.66772300       1.23305200       0.17809200
C       -1.43588500      -0.02578300      -0.11802900
C       -0.65295600      -1.17816500       0.49974200
H        1.23608300      -2.14583700      -0.04630500
H        0.44780800      -1.10439400      -1.31881100
H        1.31150600       0.22888900       1.24700400
H        2.49030600       0.00883500      -0.16273500
H        0.55960100       0.82562800      -1.58427000
H        1.23142100       2.11482400      -0.47930600
H       -1.21877700       2.15286100      -0.06529000
H       -0.42133200       1.19351300       1.26914400
H       -1.54642300      -0.24738600      -1.18878400
H       -2.40409200      -0.00562500       0.43653400
H       -1.20923800      -2.11756500       0.36639800
H       -0.51136800      -0.90811100       1.57134700
18
Properties=species:S:1:pos:R:3 smiles=C1CCCCC1 config_type=start_23 pbc="F F F"
C        1.36804100      -0.08773400      -0.43573300
C        0.76998300       1.21900300       0.07365700
C       -0.68933000       1.20401400      -0.36763500
C       -1.35487000       0.12582600       0.48063500
C       -0.80676300      -1.19118400      -0.05814600
C        0.67406300      -1.22908400       0.28090400
H        1.18287900      -0.14649900      -1.52801400
H        2.43734000      -0.10139800      -0.16593500
H        0.82829100       1.14390300       1.18882600
H        1.31527800       2.09089100      -0.32348200
H       -1.17577800       2.18206400      -0.27189400
H       -0.69928600       0.84545100      -1.42816300
H       -2.45054700       0.17162800       0.44066200
H       -0.94338800       0.20952300       1.51814400
H       -1.34439900      -2.04532000       0.37537900
H       -0.97930300      -1.16209300      -1.15376800
H        0.76117500      -1.02913800       1.37910100
H        1.10661400      -2.19985200      -0.00453700
18
Properties=species:S:1:pos:R:3 smiles=C1CCCCC1 config_type=start_24 pbc="F F F"
C       -0.07912200       1.43678700      -0.29791200
C       -1.28198700       0.59569600      -0.42262700
C       -1.18656800      -0.85108300      -0.16100400
C        0.05736900      -1.41964400       0.38251000
C        1.26334000      -0.58066500       0.48785100
C        1.22212900       0.81347800       0.01079600
H        0.05235600       2.02665300      -1.24743300
H       -0.28544400       2.26081300       0.43843200
H       -1.72172100       0.73947200      -1.44865500
H       -2.09907400       1.04699400       0.20662100
H       -2.02803800      -1.13202000       0.53210400
H       -1.48451200      -1.41726600      -1.08643800
H        0.30990900      -2.34429400      -0.20695200
H       -0.14577800      -1.87508100       1.39107400
H        1.63553100      -0.59912200       1.54921900
H        2.11736400      -1.09421400      -0.03511800
H        1.91747600       0.93181500      -0.86592200
H        1.73677100       1.46168100       0.77345500
