5
Properties=species:S:1:pos:R:3 pbc="F F F"
C        0.04967142      -0.01382643       0.06476885
H        0.78142099       0.60570266       0.60570430
H       -0.47119672      -0.55237453       0.58217056
H        0.68337400      -0.67545977      -0.67569098
H       -0.60492177       0.43778998      -0.80160978
