32
Coordinates from ORCA-job orca5
  C   4.67403865952611      0.86119385073377      0.16947852014285
  C   3.33136327069814      0.14601972147109      0.33429655854074
  C   2.93902326175293     -0.68138642461252     -0.89538923299834
  C   1.63933435409383     -1.48307817802856     -0.74737203476529
  C   0.37490500126033     -0.63238035287179     -0.58611033401255
  C   -0.90789530669230     -1.46796675409927     -0.51847074989418
  C   -2.20148834528669     -0.64634081800665     -0.44238644683889
  C   -2.33833096723632      0.20287233792827      0.82797470276168
  C   -3.70413177597023      0.88485263110548      0.99084680620553
  C   -4.02640802448030      1.92063548991879     -0.09036842511758
  H   5.49301082873576      0.13897338527280     -0.00698711633146
  H   4.93400244566496      1.45092736922206      1.06741244226942
  H   4.65276438853183      1.55454742066265     -0.69253279206443
  H   2.54673614761655      0.89458863891085      0.55056635775250
  H   3.37150682413789     -0.51948599520594      1.21944133502839
  H   3.76370632033219     -1.38293286155290     -1.12732747594359
  H   2.85501637863925     -0.00932336911594     -1.77351350384627
  H   1.51867583809860     -2.13198711364822     -1.63680593203945
  H   1.73020283431572     -2.16851054524966      0.11940870347781
  H   0.30330679968304      0.07779309504837     -1.43574440276854
  H   0.45887120770960     -0.01157474571516      0.32468209645218
  H   -0.85388251351040     -2.14562364644757      0.35760059791220
  H   -0.95360312996434     -2.12413016582414     -1.40954560056751
  H   -2.26467752549973      0.00290419001286     -1.33689402599968
  H   -3.06605053499664     -1.33613095002456     -0.50184943152007
  H   -1.54784520675262      0.97795744018662      0.84913257250854
  H   -2.15559157258570     -0.44574601578623      1.70716540583453
  H   -4.49649255712612      0.11063186181452      1.00791318646748
  H   -3.73713839080676      1.37628769284281      1.98167657908485
  H   -4.09813394671762      1.46141796475685     -1.09239987948844
  H   -4.98992959441115      2.42207460545451      0.11260369126706
  H   -3.24486216875979      2.70291924084681     -0.13788817150947
