32
Coordinates from ORCA-job orca8
  C   4.87399426739177     -0.20741648388442      1.09409631961888
  C   3.53040833670594      0.13328202023459      1.74539311810966
  C   2.40918202717847      0.48536737578936      0.75586811447360
  C   1.98058223953178     -0.66966453944589     -0.15692746205997
  C   0.86998901414865     -0.31672318072089     -1.15615616730865
  C   -0.48198248051121      0.03288549699346     -0.52486536226161
  C   -1.58487099548796      0.26324631771278     -1.56489665001956
  C   -2.93688622553079      0.69768300715307     -0.98322360212825
  C   -3.61530125702813     -0.34392129290837     -0.08543241305830
  C   -4.99920966031008      0.09492830439890      0.39963200562446
  H   4.81155597042142     -1.11412087540556      0.46588093097157
  H   5.65131485236336     -0.38966965486635      1.85790397315667
  H   5.22451845971860      0.62115281415757      0.44958997801506
  H   3.67275323530997      0.98780175705382      2.43390707002980
  H   3.20202490324102     -0.71529573687275      2.37808721028207
  H   1.53577164090432      0.84131975747144      1.33245252547205
  H   2.73222824278793      1.34111264645686      0.12877038137228
  H   1.64955953732499     -1.52179158119164      0.47056851198843
  H   2.85621274004667     -1.03192764120974     -0.72598407727275
  H   1.20473676719241      0.52680124184799     -1.79281281509007
  H   0.72662013800638     -1.17450589192148     -1.84160764389467
  H   -0.38718093818796      0.94153000608062      0.10080001868266
  H   -0.77558211175801     -0.78353765365838      0.16262741387956
  H   -1.72367871815392     -0.66202181527452     -2.15975777980529
  H   -1.24117029399590      1.03579828892446     -2.28020844134845
  H   -2.80330512102767      1.63787705968567     -0.41115799080030
  H   -3.62099109579229      0.94441283425919     -1.81811874317805
  H   -2.97543738468353     -0.55877519232030      0.79060818540372
  H   -3.70177618778684     -1.29797465944054     -0.64165503715032
  H   -5.46626061210914     -0.67245853100001      1.04386243764946
  H   -5.68087445041021      0.28045505365754     -0.45151060829723
  H   -4.93694383950008      1.03203474824356      0.98426659894355
