32
Coordinates from ORCA-job orca0
  C   4.77971264552432     -0.51119468256623     -0.15396581565098
  C   3.99328812293374      0.55332099935849     -0.92362876349431
  C   2.46936404861415      0.44804771689222     -0.77310290386248
  C   1.95602157826544      0.68234519467281      0.65247261996929
  C   0.42704211439901      0.73724363177666      0.77385938687609
  C   -0.28008962198881     -0.58635783615787      0.45552938478959
  C   -1.78692407059001     -0.59227973807038      0.74876000851049
  C   -2.60814424626020      0.35996177540928     -0.12846266289880
  C   -4.11551422895246      0.35541180443713      0.16507344633311
  C   -4.82013797297615     -0.97172869495330     -0.13199934991541
  H   4.45576102232019     -1.52934261217271     -0.44276492498278
  H   5.86307965239898     -0.43420330009888     -0.35989497314074
  H   4.64297417980259     -0.41590765128446      0.93859614112407
  H   4.32191390021486      1.56035632812143     -0.59841779345707
  H   4.24821626621128      0.48264098487712     -1.99805581110203
  H   1.99140827762140      1.18621683365455     -1.44637450590567
  H   2.14307011257259     -0.54730527626936     -1.13090026336978
  H   2.33925523466285     -0.10725227923853      1.32685203693538
  H   2.37800534238203      1.63573954410175      1.02668216470160
  H   0.04476019302003      1.53918849188227      0.11371324968808
  H   0.16256547091546      1.03780285714845      1.80630349742654
  H   0.19948673809455     -1.39099312722195      1.04613466964708
  H   -0.12163847362594     -0.85161149506835     -0.60704781139944
  H   -2.16228946948959     -1.62439666743851      0.61992397368796
  H   -1.95258303801149     -0.33691104574879      1.81501907999462
  H   -2.44335070191320      0.10217259278756     -1.19450250102180
  H   -2.23173019098159      1.39205053553508     -0.00256323329844
  H   -4.27783294601775      0.62840737893799      1.22629723286483
  H   -4.59246201141226      1.15603107854646     -0.43080818787870
  H   -5.91051616731093     -0.88872514626454      0.02944256926428
  H   -4.65926239148237     -1.27985035662083     -1.18274230091221
  H   -4.45344836894072     -1.78887783896457      0.51445034047762
