13
Coordinates from ORCA-job orca7
  C   -0.02463136716175      0.11429837297028     -0.32709329973687
  C   -1.02914648795150      0.78831463558462      0.55470993837238
  C   1.40239603699071      0.26022384377494      0.21966178505684
  C   -0.38071032374547     -1.37528621055619     -0.54646634402828
  H   -0.06217209536034      0.59853938926057     -1.32497168027628
  H   -0.83360041753864      0.92848165279071      1.62516942673774
  H   -2.03893755744981      1.00425354016070      0.18595012550221
  H   1.68130855129695      1.32311092298684      0.33238342186457
  H   2.13923646066791     -0.21916567707974     -0.44997567749921
  H   1.48965956499854     -0.21890293909351      1.21324139945163
  H   0.32963054024099     -1.84967694095599     -1.24999638966401
  H   -1.39846208716255     -1.48606708434050     -0.96153159315621
  H   -0.34176481782503     -1.93091750550274      0.40860588737548
