13
Coordinates from ORCA-job orca2
  C   -0.02388922122418      0.13795119155180     -0.45327751511148
  C   1.07522336334008     -0.87515213449805     -0.49384361764915
  C   0.30557071271350      1.29894591522182      0.49928168335770
  C   -1.37981230333765     -0.50334274091428     -0.11350774150912
  H   -0.12345988470232      0.57917075668847     -1.47401349049647
  H   2.12027814063256     -0.56922747722816     -0.36183885523976
  H   0.87819816574614     -1.89854484084340     -0.83448626545868
  H   -0.48138269905593      2.07497752595098      0.46884771220079
  H   1.26389289057901      1.77748851102137      0.22631653739996
  H   0.39154249278489      0.93941938985739      1.54145764519942
  H   -1.62555419739272     -1.31835615588456     -0.81845715614264
  H   -1.36585181185042     -0.93166026800026      0.90591666778021
  H   -2.19473964823295      0.24226232707689     -0.15915460433079
