13
Coordinates from ORCA-job orca8
  C   -0.06531698724138     -0.01977029362250      0.43010186422054
  C   1.21771540913025     -0.74222589495973      0.16649423742510
  C   -1.28044600735562     -0.81207703860315     -0.08118423475811
  C   -0.04328395018834      1.40838017488971     -0.13898629518256
  H   -0.18554414761422      0.07600883632777      1.53562206653691
  H   2.16822153764667     -0.19793977905496      0.11458992847295
  H   1.25580045491100     -1.83826937980976      0.18676198075937
  H   -1.30715951097943     -1.82705062067650      0.35478439397804
  H   -1.24467063452036     -0.91751633368044     -1.18147564556610
  H   -2.22608622142326     -0.30468050855230      0.18388453307178
  H   -0.96895487449471      1.95461124852184      0.11975566279052
  H   0.81304538838328      1.98334741568247      0.25851700387021
  H   0.04497454374611      1.38865617353756     -1.24147449561866
